<?xml version="1.0" encoding="utf-8"?>

<configuration>
    <input>
        <net-file value="ingolstadt-north-netedit.net.xml" />
        <route-files value="ingolstadt-north-netedit.rou.xml" />
        <additional-files value="ingolstadt-north.poly.xml" />
    </input>

    <time>
        <step-length value="0.1" />
    </time>
</configuration>
