<?xml version="1.0" encoding="UTF-8"?>

<!-- generated on 10/22/17 17:05:08 by SUMO polyconvert Version 0.31.0
<?xml version="1.0" encoding="UTF-8"?>

<configuration xmlns:xsi="http://www.w3.org/2001/XMLSchema-instance" xsi:noNamespaceSchemaLocation="http://sumo.dlr.de/xsd/polyconvertConfiguration.xsd">

    <input>
        <net-file value="eichstaett.net.xml"/>
        <osm-files value="eichstaett.osm"/>
    </input>

    <output>
        <output-file value="eichstaett.poly.xml"/>
    </output>

    <processing>
        <poi-layer-offset value="5"/>
    </processing>

</configuration>
-->

<additional xmlns:xsi="http://www.w3.org/2001/XMLSchema-instance" xsi:noNamespaceSchemaLocation="http://sumo.dlr.de/xsd/additional_file.xsd">
    <location netOffset="-658084.21,-5415927.80" convBoundary="-0.00,-26.61,4578.24,2990.65" origBoundary="11.156879,48.874801,11.218656,48.902811" projParameter="+proj=utm +zone=32 +ellps=WGS84 +datum=WGS84 +units=m +no_defs"/>

    <poly id="2628" type="sport" color="79,230,125" fill="1" layer="-2.00" shape="2581.23,1415.69 2694.43,1383.03 2693.94,1376.11 2702.37,1372.20 2706.21,1359.18 2708.15,1339.89 2700.25,1325.16 2690.96,1311.07 2561.21,1341.18 2581.23,1415.69"/>
    <poly id="2639" type="sport" color="79,230,125" fill="1" layer="-2.00" shape="672.49,1836.98 583.09,1770.48 691.48,1641.15 802.99,1719.01 740.04,1802.49 714.72,1782.87 672.49,1836.98"/>
    <poly id="2643" type="sport" color="79,230,125" fill="1" layer="-2.00" shape="2259.88,1430.04 2373.34,1380.98 2345.25,1314.96 2239.04,1387.08 2259.88,1430.04"/>
    <poly id="2646" type="parking" color="184,184,179" fill="1" layer="-1.00" shape="3356.06,783.17 3371.93,780.67 3460.28,757.44 3470.15,750.83 3455.44,730.99 3368.62,766.91 3354.37,773.27 3356.06,783.17"/>
    <poly id="2647" type="amenity" color="237,199,199" fill="1" layer="-1.00" shape="1276.23,2327.79 1346.50,2249.84 1328.11,2220.76 1248.77,2292.42 1276.23,2327.79"/>
    <poly id="2648" type="landuse" color="194,194,130" fill="1" layer="-3.00" shape="2353.98,1812.75 2318.83,1752.30 2367.53,1721.00 2380.39,1737.97 2507.38,1657.72 2532.31,1697.49 2353.98,1812.75"/>
    <poly id="2660" type="parking" color="184,184,179" fill="1" layer="-1.00" shape="1625.27,2258.31 1585.75,2206.24 1652.25,2159.32 1677.15,2201.01 1625.27,2258.31"/>
    <poly id="2661" type="sport" color="79,230,125" fill="1" layer="-2.00" shape="3022.24,1063.36 3057.23,1048.46 3043.00,1013.82 3008.71,1029.46 3022.24,1063.36"/>
    <poly id="2675" type="residential" color="235,235,227" fill="1" layer="-3.00" shape="1257.02,2931.07 1267.80,2869.04 1301.47,2828.61 1359.38,2832.27 1449.73,2785.97 1498.88,2746.49 1586.44,2658.24 1657.02,2603.90 1714.95,2502.83 1733.54,2482.42 1773.01,2494.69 1764.02,2605.48 1662.73,2701.32 1610.69,2789.60 1576.49,2761.18 1491.77,2820.10 1365.81,2869.85 1351.79,2922.81 1309.80,2939.57 1257.02,2931.07"/>
    <poly id="2681" type="residential" color="235,235,227" fill="1" layer="-3.00" shape="310.42,2586.14 353.55,2665.34 447.29,2797.99 537.91,2870.85 658.74,2967.67 774.95,2989.27 890.77,2990.65 1079.09,2955.61 1198.82,2904.35 1286.14,2824.44 1266.34,2785.85 1176.69,2790.91 1104.25,2836.98 981.90,2842.16 882.14,2817.62 834.82,2771.32 850.38,2739.04 677.92,2587.02 605.31,2498.19 471.39,2353.59 431.73,2399.00 310.42,2586.14"/>
    <poly id="2689" type="water" color="181,209,209" fill="0" layer="-4.00" shape="648.06,2097.10 649.55,2077.29 653.22,2046.00 650.11,2025.13 627.09,2004.16 575.43,1964.83 565.05,1955.31 563.72,1936.80 567.93,1886.60 567.04,1869.03 561.30,1859.16 540.88,1844.73 529.48,1838.41 525.55,1829.99 527.27,1802.33 535.76,1780.41 602.11,1678.42 641.77,1667.54 671.96,1650.13 704.85,1604.26 769.15,1487.87 842.73,1392.08 876.28,1366.89"/>
    <poly id="2714" type="forest" color="140,196,107" fill="1" layer="-4.00" shape="2952.82,1795.90 2960.19,1848.41 3046.99,1918.93 3217.60,1889.07 3331.61,1841.76 3428.34,1803.27 3333.30,1783.28 3247.67,1773.84 3212.56,1736.51 3168.44,1704.95 3293.19,1683.96 3305.44,1630.30 3198.38,1560.30 3112.97,1447.87 2860.62,1616.17 2952.82,1795.90"/>
    <poly id="2718" type="parking" color="184,184,179" fill="1" layer="-1.00" shape="3079.94,730.80 3098.42,767.12 3130.36,751.09 3112.58,712.90 3079.94,730.80"/>
    <poly id="2719" type="water" color="181,209,209" fill="0" layer="-4.00" shape="1117.82,1032.48 1049.79,1122.89 1025.22,1159.90 990.78,1184.41 967.60,1211.37 943.32,1255.04 893.51,1331.37 876.28,1366.89 886.42,1396.42 915.47,1422.44"/>
    <poly id="2726" type="parking" color="184,184,179" fill="1" layer="-1.00" shape="1689.11,2365.47 1707.54,2330.33 1723.13,2340.12 1731.27,2354.83 1730.41,2371.88 1704.65,2400.11 1695.38,2385.50 1689.11,2365.47"/>
    <poly id="2728" type="sport" color="79,230,125" fill="1" layer="-2.00" shape="2934.80,1126.17 2924.72,1103.34 2942.74,1095.70 2954.20,1119.41 2934.80,1126.17"/>
    <poly id="2731" type="building" color="255,230,230" fill="1" layer="-1.00" shape="2400.85,1431.92 2423.80,1421.90 2435.11,1444.83 2410.30,1453.53 2400.85,1431.92"/>
    <poly id="2749" type="forest" color="140,196,107" fill="1" layer="-4.00" shape="2635.93,2180.08 2590.78,2261.10 2384.88,2137.77 2326.80,2030.91 2346.57,1981.17 2455.10,1909.56 2571.69,1862.64 2681.41,1844.35 2724.19,1836.98 2728.76,1862.11 2699.45,1878.77 2705.01,1912.42 2543.16,2003.60 2502.22,2045.11 2524.86,2108.27 2635.93,2180.08"/>
    <poly id="2756" type="amenity" color="237,199,199" fill="1" layer="-1.00" shape="2617.03,1189.74 2627.49,1198.21 2606.47,1228.36 2625.75,1258.43 2616.11,1265.05 2599.18,1240.71 2533.09,1262.03 2525.16,1231.05 2540.44,1225.20 2545.21,1234.76 2560.32,1234.56 2559.46,1220.73 2539.04,1208.21 2564.56,1197.02 2558.51,1188.06 2594.34,1190.35 2593.93,1204.77 2602.05,1206.89 2617.03,1189.74"/>
    <poly id="2756#1" type="building" color="255,230,230" fill="1" layer="-1.00" shape="2617.03,1189.74 2627.49,1198.21 2606.47,1228.36 2625.75,1258.43 2616.11,1265.05 2599.18,1240.71 2533.09,1262.03 2525.16,1231.05 2540.44,1225.20 2545.21,1234.76 2560.32,1234.56 2559.46,1220.73 2539.04,1208.21 2564.56,1197.02 2558.51,1188.06 2594.34,1190.35 2593.93,1204.77 2602.05,1206.89 2617.03,1189.74"/>
    <poly id="2757" type="parking" color="184,184,179" fill="1" layer="-1.00" shape="3099.52,1092.18 3098.68,1069.18 3192.89,1024.45 3202.11,1045.05 3099.52,1092.18"/>
    <poly id="2758" type="building" color="255,230,230" fill="1" layer="-1.00" shape="832.10,2119.01 882.82,2059.08 917.80,2096.11 869.24,2154.16 832.10,2119.01"/>
    <poly id="2761" type="building" color="255,230,230" fill="1" layer="-1.00" shape="1302.96,2034.95 1327.65,2009.96 1340.73,2023.77 1318.04,2048.02 1302.96,2034.95"/>
    <poly id="2762" type="forest" color="140,196,107" fill="1" layer="-3.00" shape="3434.67,1191.57 3464.63,1184.86 3508.35,1227.80 3505.30,1288.97 3574.51,1326.34 3614.32,1329.38 3634.23,1297.76 3717.75,1322.29 3720.79,1348.26 3747.59,1385.03 3771.50,1412.24 3830.99,1413.34 3917.07,1414.58 3947.65,1408.52 3845.51,1458.59 3803.51,1465.58 3765.60,1462.59 3708.34,1431.99 3508.42,1344.46 3453.83,1295.05 3444.67,1242.04 3434.67,1191.57"/>
    <poly id="2769" type="parking" color="184,184,179" fill="1" layer="-1.00" shape="1771.25,2046.90 1718.32,1972.26 1759.19,1943.04 1777.00,1982.04 1787.90,2020.47 1771.25,2046.90"/>
    <poly id="2774" type="building" color="255,230,230" fill="1" layer="-1.00" shape="1706.42,1922.79 1717.40,1896.52 1731.36,1901.16 1721.87,1927.14 1706.42,1922.79"/>
    <poly id="2791" type="water" color="181,209,209" fill="0" layer="-4.00" shape="2255.08,1242.89 2370.97,1162.63 2473.61,1100.20 2555.87,1058.15 2657.21,1019.74 2701.50,1007.44 2733.93,1001.11"/>
    <poly id="2798" type="residential" color="235,235,227" fill="1" layer="-3.00" shape="1430.27,2768.43 1413.29,2737.95 1453.41,2690.31 1533.50,2616.86 1591.74,2559.57 1649.99,2501.26 1670.97,2463.22 1705.87,2472.87 1684.24,2515.97 1655.35,2563.43 1605.86,2617.92 1453.17,2751.80 1430.27,2768.43"/>
    <poly id="2803" type="industrial" color="209,209,204" fill="1" layer="-3.00" shape="2442.26,1105.05 2586.44,1019.67 2622.18,1010.61 2830.75,956.00 2943.56,902.50 3156.46,832.56 3191.11,826.84 3266.86,817.68 3582.13,676.17 4091.17,455.89 4179.86,391.24 4241.46,330.25 4261.62,286.87 4266.10,241.16 4258.16,189.44 4232.18,108.30 3954.39,175.82 3851.72,236.06 3675.55,376.73 3585.73,439.91 3454.74,495.47 3299.32,590.29 3086.02,718.28 2986.20,768.99 2648.79,940.44 2430.34,1081.48 2442.26,1105.05"/>
    <poly id="2812" type="parking" color="184,184,179" fill="1" layer="-1.00" shape="2682.65,1228.68 2719.74,1252.36 2715.12,1281.72 2703.49,1292.07 2528.56,1331.60 2527.67,1319.01 2637.26,1295.80 2649.82,1253.48 2660.34,1238.08 2682.65,1228.68"/>
    <poly id="2816" type="parking" color="184,184,179" fill="1" layer="-1.00" shape="1678.64,2195.51 1655.82,2158.53 1698.29,2132.21 1710.89,2120.58 1725.64,2145.53 1678.64,2195.51"/>
    <poly id="2817" type="industrial" color="209,209,204" fill="1" layer="-3.00" shape="4250.75,660.19 4409.47,615.83 4578.24,551.68 4552.79,452.35 4224.07,602.90 4250.75,660.19"/>
    <poly id="2817#1" type="building" color="255,230,230" fill="1" layer="-1.00" shape="4250.75,660.19 4409.47,615.83 4578.24,551.68 4552.79,452.35 4224.07,602.90 4250.75,660.19"/>
    <poly id="2844" type="commercial" color="209,209,204" fill="1" layer="-3.00" shape="1349.50,2811.86 1342.44,2791.33 1361.15,2760.86 1387.54,2711.81 1420.94,2773.76 1357.66,2811.59 1349.50,2811.86"/>
    <poly id="2852" type="amenity" color="237,199,199" fill="1" layer="-1.00" shape="944.14,1238.04 878.12,1195.66 716.91,1381.45 765.15,1408.42 753.82,1429.50 789.61,1451.00 944.14,1238.04"/>
    <poly id="2858" type="building" color="255,230,230" fill="1" layer="-1.00" shape="2791.62,1262.26 2788.73,1254.41 2780.85,1257.60 2772.14,1235.60 2786.35,1228.87 2788.96,1235.46 2804.40,1229.70 2813.13,1251.08 2791.62,1262.26"/>
    <poly id="2864" type="building" color="255,230,230" fill="1" layer="-1.00" shape="2788.72,1319.33 2771.46,1280.63 2809.62,1264.64 2826.90,1302.42 2788.72,1319.33"/>
    <poly id="2872" type="industrial" color="209,209,204" fill="1" layer="-3.00" shape="1160.17,2537.41 1167.19,2547.19 1208.82,2555.66 1239.51,2556.91 1278.03,2553.42 1300.32,2539.51 1336.11,2524.06 1327.61,2458.70 1270.36,2485.79 1175.70,2531.73 1160.17,2537.41"/>
    <poly id="2873" type="forest" color="140,196,107" fill="1" layer="-3.00" shape="4248.94,-26.61 3571.34,317.92 3251.62,484.48 3018.93,691.25 2314.15,1110.43 2043.42,1328.67 1796.79,1585.26 1682.10,1632.20 1405.86,1809.46 1204.84,1973.63 1075.30,1990.16 1086.18,1916.13 1331.25,1714.51 1231.39,1855.93 1375.74,1760.09 1304.22,1763.05 1333.08,1718.27 1338.38,1730.29 1502.96,1616.19 1803.99,1334.34 1962.90,1062.65 2193.73,918.61 2210.65,768.40 2412.36,761.65 2619.86,554.14 2561.63,389.20 2298.43,343.94 1842.19,322.38 1828.48,448.26 1758.41,580.31 1619.56,738.87 1564.85,803.01 1535.15,897.07 1545.50,1126.03 1506.17,1343.82 1466.51,1416.56 1429.95,1311.18 1353.41,1358.34 1269.63,1504.65 1214.57,1620.32 1156.03,1708.71 1080.19,1879.49 800.36,2110.61 749.20,2124.43 835.19,1997.95 940.91,1882.43 892.82,1858.22 1152.91,1611.22 1326.92,1283.01 1436.56,972.23 1407.43,670.00 1341.03,458.98 1201.66,297.52 4248.94,-26.61"/>
    <poly id="2876" type="water" color="181,209,209" fill="0" layer="-4.00" shape="1612.78,2318.16 1679.84,2301.03 1703.03,2296.77 1711.44,2290.77"/>
    <poly id="2880" type="sport" color="79,230,125" fill="1" layer="-2.00" shape="2682.17,1415.84 2752.84,1393.37 2742.19,1357.97 2707.50,1370.75 2711.63,1384.65 2676.30,1396.98 2682.17,1415.84"/>
    <poly id="2885" type="leisure" color="207,245,201" fill="1" layer="-2.00" shape="3362.56,975.43 3511.83,916.20 3610.41,874.93 3597.05,826.88 3517.73,834.58 3348.20,880.28 3329.70,887.39 3362.56,975.43"/>
    <poly id="2885#1" type="sport" color="79,230,125" fill="1" layer="-2.00" shape="3362.56,975.43 3511.83,916.20 3610.41,874.93 3597.05,826.88 3517.73,834.58 3348.20,880.28 3329.70,887.39 3362.56,975.43"/>
    <poly id="2887" type="tourism" color="207,245,201" fill="1" layer="-2.00" shape="2429.15,1542.49 2365.26,1397.61 2238.02,1452.42 2287.41,1555.64 2319.49,1543.39 2338.64,1579.72 2429.15,1542.49"/>
    <poly id="2895" type="water" color="181,209,209" fill="0" layer="-4.00" shape="803.85,2561.63 888.91,2578.64 949.55,2581.70 1088.26,2566.66 1158.48,2560.27 1230.46,2569.84 1273.05,2568.41 1308.83,2557.06 1370.44,2510.65 1408.41,2485.21 1432.27,2481.59"/>
    <poly id="2896" type="building" color="255,230,230" fill="1" layer="-1.00" shape="1481.62,1823.93 1494.28,1811.50 1470.43,1788.57 1455.41,1803.43 1481.62,1823.93"/>
    <poly id="2897" type="sport" color="79,230,125" fill="1" layer="-2.00" shape="1583.30,2433.22 1596.66,2421.99 1602.08,2427.72 1616.90,2414.22 1634.57,2430.98 1655.62,2411.61 1637.98,2393.47 1656.64,2375.90 1641.71,2361.09 1625.42,2376.86 1618.15,2370.62 1570.70,2418.00 1583.30,2433.22"/>
    <poly id="2898" type="parking" color="184,184,179" fill="1" layer="-1.00" shape="1680.32,2126.27 1727.95,2092.15 1755.32,2070.79 1768.68,2052.71 1712.20,1970.54 1686.37,1994.84 1644.99,2072.03 1607.39,2127.05 1611.32,2144.16 1680.32,2126.27"/>
    <poly id="2900" type="parking" color="184,184,179" fill="0" layer="-1.00" shape="2068.22,1016.55 2134.75,938.73"/>
    <poly id="2922" type="water" color="181,209,209" fill="0" layer="-4.00" shape="1370.46,2579.87 1398.55,2577.56 1440.37,2555.67 1531.59,2480.75 1547.37,2468.89 1569.69,2462.86 1667.20,2437.93 1706.85,2427.64 1730.13,2420.10 1747.07,2403.83 1754.98,2392.22 1756.01,2379.45 1734.23,2334.46 1711.44,2290.77 1705.79,2280.75 1692.71,2254.09 1689.66,2234.29"/>
    <poly id="2929" type="parking" color="184,184,179" fill="1" layer="-1.00" shape="1521.44,2366.04 1440.86,2436.20 1415.77,2410.29 1428.02,2397.77 1492.58,2326.84 1521.44,2366.04"/>
    <poly id="2938" type="building" color="255,230,230" fill="1" layer="-1.00" shape="2419.60,1480.17 2428.46,1500.52 2450.73,1492.36 2443.17,1470.81 2419.60,1480.17"/>
    <poly id="2940" type="residential" color="235,235,227" fill="1" layer="-3.00" shape="435.50,816.18 469.87,737.68 537.11,633.23 584.95,578.19 647.77,583.83 751.41,597.82 874.90,706.45 952.67,796.44 976.93,903.70 956.18,1007.87 882.34,1148.02 775.23,1118.05 762.74,1060.03 735.88,1010.56 693.38,968.33 631.32,935.81 640.19,895.06 642.55,861.87 632.83,833.37 588.10,809.79 551.39,850.75 538.75,878.60 435.50,816.18"/>
    <poly id="2943" type="residential" color="235,235,227" fill="1" layer="-3.00" shape="3728.53,971.58 3683.45,863.48 4192.14,637.94 4253.43,786.60 3728.53,971.58"/>
    <poly id="2947" type="parking" color="184,184,179" fill="1" layer="-1.00" shape="2508.36,1371.60 2528.71,1364.65 2543.99,1402.76 2551.57,1401.73 2558.71,1416.38 2528.13,1428.68 2508.36,1371.60"/>
    <poly id="2948" type="sport" color="79,230,125" fill="1" layer="-2.00" shape="2841.09,1164.97 2931.31,1130.59 2905.36,1074.36 2821.20,1107.42 2813.71,1089.21 2768.63,1105.40 2756.30,1081.05 2688.27,1110.58 2719.97,1210.96 2795.04,1180.13 2790.45,1165.50 2832.53,1149.23 2841.09,1164.97"/>
    <poly id="2952" type="residential" color="235,235,227" fill="1" layer="-3.00" shape="778.27,2479.76 826.53,2510.54 972.59,2509.11 1207.40,2448.62 1358.88,2277.67 1591.75,1990.88 1769.64,1692.91 1846.65,1555.34 1788.78,1516.68 1666.46,1613.04 1520.37,1676.22 1475.66,1798.24 1340.57,1877.70 1295.92,1957.49 1236.16,1992.42 1279.38,2045.71 1183.29,2140.62 1164.39,2113.64 1033.33,2226.19 987.42,2301.95 929.78,2389.95 925.90,2445.77 814.42,2420.91 778.27,2479.76"/>
    <poly id="2955" type="water" color="181,209,209" fill="0" layer="-4.00" shape="1834.85,2379.77 1853.97,2325.24 1856.35,2315.42 1853.56,2308.15 1847.39,2303.03"/>
    <poly id="2958" type="residential" color="235,235,227" fill="1" layer="-3.00" shape="286.15,2235.92 246.23,2184.04 225.92,2142.13 226.92,2074.51 364.26,2085.56 385.12,2023.58 385.27,1970.52 387.09,1906.64 385.13,1879.38 372.78,1834.13 281.15,1793.44 281.01,1702.28 371.19,1506.21 443.46,1411.66 522.84,1307.81 670.06,1397.65 570.05,1534.12 643.07,1580.23 547.89,1723.51 505.64,1813.69 516.43,1878.06 551.57,1889.06 521.76,1987.40 497.18,2027.27 464.81,2060.66 404.24,2136.79 397.31,2222.95 286.15,2235.92"/>
    <poly id="2968" type="building" color="255,230,230" fill="1" layer="-1.00" shape="2996.92,567.43 3005.79,560.13 2994.57,545.77 3004.28,537.68 2973.39,501.16 2959.26,512.35 2939.66,478.86 2963.65,463.63 2954.59,449.06 2924.88,465.75 2953.42,517.86 2996.92,567.43"/>
    <poly id="2970" type="sport" color="79,230,125" fill="1" layer="-2.00" shape="2974.47,1132.63 3023.78,1110.16 2992.80,1036.23 2941.08,1060.77 2974.47,1132.63"/>
    <poly id="2971" type="forest" color="140,196,107" fill="1" layer="-4.00" shape="2164.05,2091.53 2233.28,2209.93 2261.14,2233.82 2260.04,2272.13 2230.80,2305.29 2194.37,2260.11 2124.65,2338.40 2146.78,2451.87 2060.69,2468.93 2036.08,2441.46 1991.79,2468.40 1995.36,2520.58 2041.02,2597.84 2056.08,2553.42 2124.53,2519.22 2193.62,2513.26 2145.78,2537.20 2095.16,2556.73 2072.62,2558.25 2080.10,2626.44 1976.11,2635.03 1977.59,2609.03 1859.20,2614.31 1836.07,2586.17 1807.98,2578.84 1806.97,2512.99 1837.73,2452.40 1878.65,2416.69 1906.60,2327.79 1918.19,2328.13 1951.21,2290.01 1977.84,2347.92 2045.01,2282.58 2052.51,2248.80 2094.27,2184.18 2164.05,2091.53"/>
    <poly id="2972" type="building" color="255,230,230" fill="1" layer="-1.00" shape="2649.54,1670.62 2630.69,1634.49 2600.95,1649.40 2591.33,1629.30 2610.19,1620.69 2602.03,1603.17 2615.44,1597.71 2619.02,1606.20 2635.30,1598.54 2625.92,1579.21 2640.67,1571.50 2647.26,1590.24 2663.03,1582.82 2671.91,1601.89 2650.20,1612.44 2656.04,1622.01 2674.37,1613.90 2682.06,1630.13 2660.35,1640.43 2669.26,1658.23 2649.54,1670.62"/>
    <poly id="2973" type="residential" color="235,235,227" fill="1" layer="-3.00" shape="2541.91,2321.33 2590.78,2261.10 2384.88,2137.77 2326.80,2030.91 2346.57,1981.17 2454.55,1910.32 2571.69,1862.64 2681.41,1844.35 2724.20,1836.62 2729.79,1863.20 2699.45,1878.77 2705.01,1912.42 2905.65,1866.80 2960.19,1848.41 2952.82,1795.90 2860.62,1616.17 3112.97,1447.87 3186.36,1389.03 3260.26,1336.73 3285.70,1379.25 3365.17,1353.70 3508.14,1459.13 3725.28,1534.55 3765.60,1462.59 3708.34,1431.99 3508.42,1344.46 3453.83,1295.05 3444.67,1242.04 3434.67,1191.57 3462.78,1158.99 3307.71,1013.95 3167.00,1066.65 2879.89,1179.63 2717.31,1226.94 2773.81,1455.34 2518.64,1557.14 2461.66,1507.38 2252.05,1554.52 2133.62,1566.31 2090.85,1508.10 1949.46,1611.67 1849.04,1703.74 1857.88,1793.88 1866.32,2075.19 1774.13,2323.21 1729.71,2389.74 1671.30,2443.15 1773.01,2494.69 1820.57,2423.13 1865.11,2400.10 1893.23,2269.66 2061.26,2191.04 2164.05,2091.53 2233.28,2209.93 2283.01,2194.17 2541.91,2321.33"/>
    <poly id="2975" type="building" color="255,230,230" fill="1" layer="-1.00" shape="3305.37,919.97 3323.62,963.82 3294.32,975.54 3274.18,931.62 3305.37,919.97"/>
    <poly id="2976" type="building" color="255,230,230" fill="1" layer="-1.00" shape="2993.54,1142.01 3010.18,1176.39 3054.85,1155.71 3041.35,1122.04 2993.54,1142.01"/>
    <poly id="2979" type="forest" color="140,196,107" fill="1" layer="-3.00" shape="2666.12,2815.38 2562.51,2772.38 2542.05,2722.70 2507.77,2741.72 2466.57,2589.61 2431.31,2674.05 2396.97,2726.71 2384.07,2722.99 2383.79,2716.46 2444.90,2588.35 2482.18,2445.13 2494.08,2453.39 2507.13,2583.63 2520.19,2584.01 2522.16,2531.93 2503.02,2450.85 2574.52,2351.44 2585.83,2363.87 2558.64,2432.44 2555.57,2522.65 2570.81,2641.79 2598.07,2684.00 2622.99,2758.73 2642.42,2781.18 2671.58,2805.76 2666.12,2815.38"/>
    <poly id="2984" type="parking" color="184,184,179" fill="1" layer="-1.00" shape="2439.09,1262.87 2458.14,1257.15 2476.82,1329.89 2480.63,1350.71 2466.65,1355.33 2455.02,1321.73 2449.44,1297.08 2439.09,1262.87"/>
    <poly id="2991" type="amenity" color="237,199,199" fill="1" layer="-1.00" shape="2011.38,1780.66 2014.87,1791.73 2029.62,1787.10 2020.81,1754.12 2045.05,1747.41 2040.10,1729.96 1974.38,1747.35 1965.42,1740.17 1952.22,1750.67 1948.35,1738.69 1889.61,1755.06 1909.66,1831.97 1934.45,1826.87 1936.76,1835.50 1999.56,1817.15 2005.66,1812.95 2010.15,1805.53 2010.44,1795.33 2004.04,1787.58 1989.07,1791.91 1988.44,1788.26 2011.38,1780.66"/>
    <poly id="2991#1" type="building" color="255,230,230" fill="1" layer="-1.00" shape="2011.38,1780.66 2014.87,1791.73 2029.62,1787.10 2020.81,1754.12 2045.05,1747.41 2040.10,1729.96 1974.38,1747.35 1965.42,1740.17 1952.22,1750.67 1948.35,1738.69 1889.61,1755.06 1909.66,1831.97 1934.45,1826.87 1936.76,1835.50 1999.56,1817.15 2005.66,1812.95 2010.15,1805.53 2010.44,1795.33 2004.04,1787.58 1989.07,1791.91 1988.44,1788.26 2011.38,1780.66"/>
    <poly id="2996" type="tourism" color="207,245,201" fill="1" layer="-2.00" shape="1034.55,2067.26 1082.70,2028.34 1068.51,2008.30 1013.39,2037.99 1034.55,2067.26"/>
    <poly id="3001" type="tourism" color="207,245,201" fill="1" layer="-2.00" shape="3008.07,1006.57 2996.03,987.37 3034.47,964.63 3100.42,905.00 3182.69,869.09 3204.01,894.19 3075.78,973.36 3008.07,1006.57"/>
    <poly id="3010" type="building" color="255,230,230" fill="1" layer="-1.00" shape="2982.41,1224.53 3008.15,1214.48 2985.24,1152.75 2951.87,1165.36 2982.41,1224.53"/>
    <poly id="3020" type="water" color="181,209,209" fill="0" layer="-4.00" shape="859.82,578.18 868.44,603.24 886.64,621.75 910.84,647.66 946.72,688.81 970.01,720.42 1052.95,807.62 1078.01,856.48 1100.09,904.11 1122.23,949.44 1123.41,989.70 1117.82,1032.48 1115.76,1055.62 1100.69,1125.57 1089.48,1171.72 1070.93,1204.43 1054.32,1217.49 1037.86,1219.74 1007.74,1230.14 989.09,1250.04 964.26,1288.31 939.32,1347.30 922.41,1391.75 915.47,1422.44 920.81,1437.77 935.59,1476.01 959.41,1515.67 983.31,1551.88 1008.87,1583.57 1037.56,1624.10 1041.16,1654.21 1032.24,1669.16 1000.73,1704.75 972.48,1739.65 932.25,1778.43 894.06,1818.73 852.51,1853.02 808.61,1890.04 759.79,1938.40 718.36,1983.00 693.93,2031.00 670.12,2075.06 648.06,2097.10 532.83,2163.48 478.05,2203.16 458.97,2242.96 467.49,2294.54 493.45,2345.16 554.94,2408.19 593.71,2433.61 627.44,2469.88 707.73,2589.01 766.94,2633.47 851.08,2708.86 882.20,2735.06 921.76,2753.48 954.98,2764.06 989.51,2763.79 1091.10,2766.85 1140.94,2776.88 1209.05,2725.11 1295.21,2638.58 1348.84,2592.65 1370.46,2579.87 1432.27,2481.59 1536.84,2391.39 1612.78,2318.16 1632.78,2300.46 1689.66,2234.29 1729.83,2188.40 1830.66,2024.31 1848.23,1974.13 1857.89,1922.95 1853.88,1877.63 1845.93,1833.07 1821.67,1728.55 1826.23,1671.05 1845.25,1617.41 1937.77,1489.36 2089.00,1345.59 2255.08,1242.89 2361.61,1225.01 2491.46,1177.81 2632.52,1084.57 2685.65,1037.38 2733.93,1001.11 2783.64,980.57 2819.34,980.91 2856.29,985.67 2906.95,984.13 2937.56,977.60 2969.15,966.95 3019.78,931.74 3064.54,891.54 3088.63,873.23 3116.76,860.38 3168.05,848.70 3223.57,843.79 3268.92,837.18 3387.25,798.14 3484.89,773.73 3571.41,753.59 3648.69,760.33 3726.70,773.48 3761.34,763.60 3793.46,731.84 3827.41,693.67 3855.74,643.60 3913.52,610.42 3985.18,600.89 4052.42,618.39 4086.81,619.32 4124.32,606.21 4263.66,542.18 4426.49,478.75 4504.08,362.55"/>
    <poly id="3028" type="building" color="255,230,230" fill="1" layer="-1.00" shape="3011.25,819.86 3098.11,777.78 3074.93,730.02 2986.20,768.99 3011.25,819.86"/>
    <poly id="3029" type="building" color="255,230,230" fill="1" layer="-1.00" shape="882.82,2059.08 927.28,2024.34 949.05,2017.07 969.43,1990.61 1019.01,1926.50 1019.62,1911.56 1042.72,1916.12 1071.75,1902.76 1070.09,1950.49 1050.05,1961.80 1089.27,2022.82 1035.71,2073.00 1018.25,2053.87 965.38,2111.77 941.77,2113.93 856.59,2245.95 833.25,2206.48 793.65,2226.86 795.75,2171.11 758.83,2151.62 812.05,2109.78 827.96,2121.85 832.10,2119.01 882.82,2059.08"/>
    <poly id="3029#1" type="historic" color="128,255,128" fill="1" layer="-1.00" shape="882.82,2059.08 927.28,2024.34 949.05,2017.07 969.43,1990.61 1019.01,1926.50 1019.62,1911.56 1042.72,1916.12 1071.75,1902.76 1070.09,1950.49 1050.05,1961.80 1089.27,2022.82 1035.71,2073.00 1018.25,2053.87 965.38,2111.77 941.77,2113.93 856.59,2245.95 833.25,2206.48 793.65,2226.86 795.75,2171.11 758.83,2151.62 812.05,2109.78 827.96,2121.85 832.10,2119.01 882.82,2059.08"/>
    <poly id="3038" type="parking" color="184,184,179" fill="1" layer="-1.00" shape="2442.34,1674.64 2485.26,1651.02 2450.20,1598.43 2408.39,1621.00 2442.34,1674.64"/>
    <poly id="3043" type="leisure" color="207,245,201" fill="1" layer="-2.00" shape="3038.14,1110.07 3247.88,1015.02 3201.62,917.24 2998.41,1025.60 3038.14,1110.07"/>
    <poly id="3044" type="amenity" color="237,199,199" fill="1" layer="-1.00" shape="2800.12,1375.02 2746.37,1239.99 2910.98,1178.55 2939.77,1237.28 2868.11,1266.58 2888.04,1305.85 2848.21,1322.39 2857.36,1350.84 2800.12,1375.02"/>
    <poi id="100" type="tourism" color="207,245,201" layer="3.00" x="723.00" y="657.71"/>
    <poi id="1015" type="amenity" color="237,199,199" layer="4.00" x="935.08" y="2061.17"/>
    <poi id="1016" type="amenity" color="237,199,199" layer="4.00" x="913.55" y="2078.95"/>
    <poi id="1026" type="parking" color="184,184,179" layer="4.00" x="961.22" y="2018.96"/>
    <poi id="1077" type="tourism" color="207,245,201" layer="3.00" x="995.24" y="2047.36"/>
    <poi id="1137" type="amenity" color="237,199,199" layer="4.00" x="729.96" y="2235.86"/>
    <poi id="1210" type="tourism" color="207,245,201" layer="3.00" x="893.33" y="2105.52"/>
    <poi id="1286" type="parking" color="184,184,179" layer="4.00" x="1133.65" y="2442.37"/>
    <poi id="1369" type="tourism" color="207,245,201" layer="3.00" x="1321.19" y="2030.47"/>
    <poi id="1374" type="amenity" color="237,199,199" layer="4.00" x="1475.54" y="1807.25"/>
    <poi id="1449" type="parking" color="184,184,179" layer="4.00" x="1880.55" y="1787.89"/>
    <poi id="1453" type="amenity" color="237,199,199" layer="4.00" x="1994.58" y="1680.83"/>
    <poi id="1454" type="historic" color="128,255,128" layer="4.00" x="1944.17" y="1719.68"/>
    <poi id="1459" type="unknown" color="51,128,255" layer="4.00" x="1946.53" y="1766.89"/>
    <poi id="1470" type="tourism" color="207,245,201" layer="3.00" x="1992.37" y="1743.92"/>
    <poi id="1483" type="amenity" color="237,199,199" layer="4.00" x="1657.05" y="1884.65"/>
    <poi id="1492" type="shop" color="237,199,255" layer="4.00" x="1777.73" y="1866.80"/>
    <poi id="1495" type="amenity" color="237,199,199" layer="4.00" x="1748.34" y="1860.28"/>
    <poi id="1503" type="amenity" color="237,199,199" layer="4.00" x="1730.79" y="1899.01"/>
    <poi id="1505" type="amenity" color="237,199,199" layer="4.00" x="1733.19" y="1905.37"/>
    <poi id="1518" type="shop" color="237,199,255" layer="4.00" x="1599.22" y="2057.64"/>
    <poi id="1538" type="shop" color="237,199,255" layer="4.00" x="1890.94" y="1838.43"/>
    <poi id="1548" type="tourism" color="207,245,201" layer="3.00" x="1921.14" y="1846.93"/>
    <poi id="1560" type="amenity" color="237,199,199" layer="4.00" x="1979.44" y="1873.01"/>
    <poi id="1562" type="amenity" color="237,199,199" layer="4.00" x="1971.52" y="1934.11"/>
    <poi id="1568" type="amenity" color="237,199,199" layer="4.00" x="2000.37" y="1905.40"/>
    <poi id="1571" type="amenity" color="237,199,199" layer="4.00" x="1964.58" y="1953.87"/>
    <poi id="1573" type="amenity" color="237,199,199" layer="4.00" x="1965.10" y="1919.34"/>
    <poi id="1575" type="shop" color="237,199,255" layer="4.00" x="1822.77" y="2010.10"/>
    <poi id="1576" type="amenity" color="237,199,199" layer="4.00" x="1884.19" y="2004.39"/>
    <poi id="1585" type="amenity" color="237,199,199" layer="4.00" x="1881.77" y="2004.32"/>
    <poi id="1598" type="amenity" color="237,199,199" layer="4.00" x="1976.36" y="1978.55"/>
    <poi id="1599" type="historic" color="128,255,128" layer="4.00" x="1991.29" y="1996.56"/>
    <poi id="1601" type="amenity" color="237,199,199" layer="4.00" x="1977.30" y="1985.01"/>
    <poi id="1603" type="amenity" color="237,199,199" layer="4.00" x="1975.25" y="1989.90"/>
    <poi id="1606" type="amenity" color="237,199,199" layer="4.00" x="1995.69" y="2005.69"/>
    <poi id="1608" type="amenity" color="237,199,199" layer="4.00" x="1965.68" y="2012.51"/>
    <poi id="1614" type="amenity" color="237,199,199" layer="4.00" x="1996.95" y="2055.56"/>
    <poi id="1614#1" type="shop" color="237,199,255" layer="4.00" x="1996.95" y="2055.56"/>
    <poi id="1620" type="amenity" color="237,199,199" layer="4.00" x="1907.27" y="2101.33"/>
    <poi id="1622" type="shop" color="237,199,255" layer="4.00" x="1992.87" y="2064.29"/>
    <poi id="1642" type="shop" color="237,199,255" layer="4.00" x="1317.35" y="2308.85"/>
    <poi id="1654" type="amenity" color="237,199,199" layer="4.00" x="1381.66" y="2343.02"/>
    <poi id="1656" type="shop" color="237,199,255" layer="4.00" x="1334.72" y="2340.91"/>
    <poi id="1657" type="amenity" color="237,199,199" layer="4.00" x="1416.71" y="2166.29"/>
    <poi id="1661" type="amenity" color="237,199,199" layer="4.00" x="1488.80" y="2164.52"/>
    <poi id="1666" type="amenity" color="237,199,199" layer="4.00" x="1427.45" y="2233.90"/>
    <poi id="1670" type="amenity" color="237,199,199" layer="4.00" x="1544.50" y="2108.52"/>
    <poi id="1721" type="water" color="181,209,209" layer="1.00" x="1370.46" y="2579.87"/>
    <poi id="1735" type="parking" color="184,184,179" layer="4.00" x="1401.30" y="2449.34"/>
    <poi id="1781" type="sport" color="79,230,125" layer="3.00" x="1683.32" y="2337.69"/>
    <poi id="1805" type="amenity" color="237,199,199" layer="4.00" x="1892.75" y="2178.60"/>
    <poi id="1813" type="amenity" color="237,199,199" layer="4.00" x="1909.91" y="2171.46"/>
    <poi id="1814" type="amenity" color="237,199,199" layer="4.00" x="1987.76" y="2212.30"/>
    <poi id="1820" type="amenity" color="237,199,199" layer="4.00" x="1967.94" y="2209.69"/>
    <poi id="188" type="water" color="181,209,209" layer="1.00" x="1115.76" y="1055.62"/>