<?xml version="1.0" encoding="UTF-8"?>

<configuration xmlns:xsi="http://www.w3.org/2001/XMLSchema-instance" xsi:noNamespaceSchemaLocation="http://sumo.dlr.de/xsd/sumoConfiguration.xsd">
    
	<input>
        <net-file value="SimpleStreet.net.xml"/>
        <route-files value="SimpleStreet.rou.xml"/>
		<gui-settings-file value="SimpleStreet.settings.xml"/>
    </input>

    <time>
        <begin value="0"/>
        <end value="10000"/>
    </time>
		
</configuration>
