<?xml version="1.0" encoding="UTF-8"?>

<!-- generated on 01.07.2018 23:46:58 by Netedit Version 0.31.0
<?xml version="1.0" encoding="UTF-8"?>

<configuration xmlns:xsi="http://www.w3.org/2001/XMLSchema-instance" xsi:noNamespaceSchemaLocation="http://sumo.dlr.de/xsd/netconvertConfiguration.xsd">

    <output>
        <output-file value="C:\Users\Michi\Documents\Repos\osds3\Maps\SquareMap\SquareMap.net.xml"/>
    </output>

    <processing>
        <no-turnarounds value="true"/>
        <offset.disable-normalization value="true"/>
    </processing>

</configuration>
-->

<net version="0.27" xmlns:xsi="http://www.w3.org/2001/XMLSchema-instance" xsi:noNamespaceSchemaLocation="http://sumo.dlr.de/xsd/net_file.xsd">

    <location netOffset="0.00,0.00" convBoundary="-85.51,-1747.89,139.81,59.94" origBoundary="10000000000.00,10000000000.00,-10000000000.00,-10000000000.00" projParameter="!"/>

    <edge id=":gneJ1_0" function="internal">
        <lane id=":gneJ1_0_0" index="0" speed="13.89" length="24.28" width="10.00" shape="133.95,49.95 132.98,56.53 130.14,61.23 125.43,64.05 118.85,64.99"/>
    </edge>
    <edge id=":gneJ1_1" function="internal">
        <lane id=":gneJ1_1_0" index="0" speed="13.89" length="8.04" width="10.00" shape="118.85,54.89 121.03,54.58 122.59,53.64 123.53,52.09 123.85,49.91"/>
    </edge>
    <edge id=":gneJ10_0" function="internal">
        <lane id=":gneJ10_0_0" index="0" speed="13.89" length="24.73" width="10.00" shape="-75.21,-625.77 -81.94,-626.68 -86.72,-629.53 -89.55,-634.33 -90.43,-641.07"/>
    </edge>
    <edge id=":gneJ10_1" function="internal">
        <lane id=":gneJ10_1_0" index="0" speed="13.89" length="8.19" width="10.00" shape="-80.33,-640.94 -80.04,-638.71 -79.10,-637.12 -77.52,-636.17 -75.29,-635.87"/>
    </edge>
    <edge id=":gneJ11_0" function="internal">
        <lane id=":gneJ11_0_0" index="0" speed="13.89" length="7.81" width="10.00" shape="-72.34,-885.70 -74.44,-885.34 -75.94,-884.40 -76.86,-882.87 -77.19,-880.77"/>
    </edge>
    <edge id=":gneJ11_1" function="internal">
        <lane id=":gneJ11_1_0" index="0" speed="13.89" length="23.60" width="10.00" shape="-87.29,-880.90 -86.30,-887.26 -83.53,-891.86 -78.98,-894.70 -72.64,-895.80"/>
    </edge>
    <edge id=":gneJ12_0" function="internal">
        <lane id=":gneJ12_0_0" index="0" speed="13.89" length="23.82" width="10.00" shape="139.19,-906.74 138.28,-900.30 135.53,-895.64 130.95,-892.76 124.55,-891.65"/>
    </edge>
    <edge id=":gneJ12_1" function="internal">
        <lane id=":gneJ12_1_0" index="0" speed="13.89" length="7.89" width="10.00" shape="124.24,-901.74 126.36,-902.11 127.88,-903.07 128.79,-904.61 129.09,-906.74"/>
    </edge>
    <edge id=":gneJ13_0" function="internal">
        <lane id=":gneJ13_0_0" index="0" speed="13.89" length="8.14" width="10.00" shape="129.09,-1191.60 128.77,-1193.81 127.82,-1195.39 126.24,-1196.31 124.02,-1196.60"/>
    </edge>
    <edge id=":gneJ13_1" function="internal">
        <lane id=":gneJ13_1_0" index="0" speed="13.89" length="24.59" width="10.00" shape="123.88,-1206.70 130.58,-1205.84 135.36,-1203.03 138.23,-1198.29 139.19,-1191.60"/>
    </edge>
    <edge id=":gneJ14_0" function="internal">
        <lane id=":gneJ14_0_0" index="0" speed="13.89" length="24.13" width="10.00" shape="-67.78,-1193.97 -74.32,-1194.82 -79.06,-1197.55 -81.97,-1202.17 -83.08,-1208.68"/>
    </edge>
    <edge id=":gneJ14_1" function="internal">
        <lane id=":gneJ14_1_0" index="0" speed="13.89" length="7.99" width="10.00" shape="-72.98,-1208.94 -72.62,-1206.79 -71.65,-1205.26 -70.08,-1204.35 -67.91,-1204.07"/>
    </edge>
    <edge id=":gneJ15_0" function="internal">
        <lane id=":gneJ15_0_0" index="0" speed="13.89" length="24.55" width="10.00" shape="-88.35,-1409.21 -87.58,-1415.91 -84.84,-1420.72 -80.14,-1423.65 -73.49,-1424.71"/>
    </edge>
    <edge id=":gneJ15_1" function="internal">
        <lane id=":gneJ15_1_0" index="0" speed="13.89" length="8.13" width="10.00" shape="-73.34,-1414.61 -75.54,-1414.26 -77.09,-1413.29 -78.00,-1411.70 -78.26,-1409.48"/>
    </edge>
    <edge id=":gneJ16_0" function="internal">
        <lane id=":gneJ16_0_0" index="0" speed="13.89" length="24.17" width="10.00" shape="137.65,-1432.76 136.75,-1426.21 133.97,-1421.50 129.31,-1418.62 122.78,-1417.59"/>
    </edge>
    <edge id=":gneJ16_1" function="internal">
        <lane id=":gneJ16_1_0" index="0" speed="13.89" length="8.00" width="10.00" shape="122.63,-1427.69 124.79,-1428.03 126.33,-1428.98 127.25,-1430.54 127.55,-1432.71"/>
    </edge>
    <edge id=":gneJ2_0" function="internal">
        <lane id=":gneJ2_0_0" index="0" speed="13.89" length="24.78" width="10.00" shape="119.23,-140.72 125.99,-139.89 130.81,-137.09 133.69,-132.31 134.63,-125.57"/>
    </edge>
    <edge id=":gneJ2_1" function="internal">
        <lane id=":gneJ2_1_0" index="0" speed="13.89" length="8.21" width="10.00" shape="124.53,-125.60 124.22,-127.84 123.26,-129.42 121.67,-130.35 119.43,-130.62"/>
    </edge>
    <edge id=":gneJ3_0" function="internal">
        <lane id=":gneJ3_0_0" index="0" speed="13.89" length="24.59" width="10.00" shape="-71.69,-126.76 -78.39,-127.58 -83.19,-130.36 -86.10,-135.08 -87.10,-141.76"/>
    </edge>
    <edge id=":gneJ3_1" function="internal">
        <lane id=":gneJ3_1_0" index="0" speed="13.89" length="8.14" width="10.00" shape="-77.00,-141.83 -76.67,-139.62 -75.71,-138.05 -74.12,-137.13 -71.90,-136.86"/>
    </edge>
    <edge id=":gneJ4_0" function="internal">
        <lane id=":gneJ4_0_0" index="0" speed="13.89" length="24.34" width="10.00" shape="-88.63,-364.83 -87.73,-371.44 -84.94,-376.18 -80.24,-379.04 -73.65,-380.04"/>
    </edge>
    <edge id=":gneJ4_1" function="internal">
        <lane id=":gneJ4_1_0" index="0" speed="13.89" length="8.06" width="10.00" shape="-73.57,-369.94 -75.75,-369.61 -77.31,-368.66 -78.23,-367.09 -78.53,-364.90"/>
    </edge>
    <edge id=":gneJ7_0" function="internal">
        <lane id=":gneJ7_0_0" index="0" speed="13.89" length="24.44" width="10.00" shape="144.73,-386.76 143.87,-380.12 141.08,-375.35 136.38,-372.47 129.75,-371.47"/>
    </edge>
    <edge id=":gneJ7_1" function="internal">
        <lane id=":gneJ7_1_0" index="0" speed="13.89" length="8.09" width="10.00" shape="129.67,-381.57 131.87,-381.90 133.43,-382.86 134.35,-384.44 134.64,-386.64"/>
    </edge>
    <edge id=":gneJ8_0" function="internal">
        <lane id=":gneJ8_0_0" index="0" speed="13.89" length="8.04" width="10.00" shape="131.71,-622.44 131.37,-624.62 130.42,-626.17 128.85,-627.09 126.67,-627.38"/>
    </edge>
    <edge id=":gneJ8_1" function="internal">
        <lane id=":gneJ8_1_0" index="0" speed="13.89" length="24.27" width="10.00" shape="126.59,-637.48 133.18,-636.59 137.91,-633.81 140.79,-629.14 141.81,-622.57"/>
    </edge>

    <edge id="gneE0" from="gneJ0" to="gneJ1" priority="1">
        <lane id="gneE0_0" index="0" speed="13.89" length="203.23" width="10.00" shape="-84.38,54.89 118.85,54.89"/>
    </edge>
    <edge id="gneE1" from="gneJ1" to="gneJ0" priority="1">
        <lane id="gneE1_0" index="0" speed="13.89" length="203.23" width="10.00" shape="118.85,64.99 -84.38,64.99"/>
    </edge>
    <edge id="gneE10" from="gneJ11" to="gneJ12" priority="1">
        <lane id="gneE10_0" index="0" speed="13.89" length="196.97" width="10.00" shape="-72.64,-895.80 124.24,-901.74"/>
    </edge>
    <edge id="gneE11" from="gneJ12" to="gneJ13" priority="1">
        <lane id="gneE11_0" index="0" speed="13.89" length="284.86" width="10.00" shape="129.09,-906.74 129.09,-1191.60"/>
    </edge>
    <edge id="gneE12" from="gneJ13" to="gneJ14" priority="1">
        <lane id="gneE12_0" index="0" speed="13.89" length="191.82" width="10.00" shape="124.02,-1196.60 -67.78,-1193.97"/>
    </edge>
    <edge id="gneE13" from="gneJ14" to="gneJ15" priority="1">
        <lane id="gneE13_0" index="0" speed="13.89" length="200.61" width="10.00" shape="-83.08,-1208.68 -88.35,-1409.21"/>
    </edge>
    <edge id="gneE14" from="gneJ15" to="gneJ16" priority="1">
        <lane id="gneE14_0" index="0" speed="13.89" length="196.14" width="10.00" shape="-73.49,-1424.71 122.63,-1427.69"/>
    </edge>
    <edge id="gneE17" from="gneJ16" to="gneJ21" priority="1">
        <lane id="gneE17_0" index="0" speed="13.89" length="315.15" width="10.00" shape="127.55,-1432.71 125.96,-1747.86"/>
    </edge>
    <edge id="gneE18" from="gneJ21" to="gneJ16" priority="1">
        <lane id="gneE18_0" index="0" speed="13.89" length="315.15" width="10.00" shape="136.06,-1747.91 137.65,-1432.76"/>
    </edge>
    <edge id="gneE19" from="gneJ16" to="gneJ15" priority="1">
        <lane id="gneE19_0" index="0" speed="13.89" length="196.14" width="10.00" shape="122.78,-1417.59 -73.34,-1414.61"/>
    </edge>
    <edge id="gneE2" from="gneJ1" to="gneJ2" priority="1">
        <lane id="gneE2_0" index="0" speed="13.89" length="175.52" width="10.00" shape="123.85,49.91 124.53,-125.60"/>
    </edge>
    <edge id="gneE20" from="gneJ15" to="gneJ14" priority="1">
        <lane id="gneE20_0" index="0" speed="13.89" length="200.61" width="10.00" shape="-78.26,-1409.48 -72.98,-1208.94"/>
    </edge>
    <edge id="gneE21" from="gneJ14" to="gneJ13" priority="1">
        <lane id="gneE21_0" index="0" speed="13.89" length="191.82" width="10.00" shape="-67.91,-1204.07 123.88,-1206.70"/>
    </edge>
    <edge id="gneE22" from="gneJ13" to="gneJ12" priority="1">
        <lane id="gneE22_0" index="0" speed="13.89" length="284.86" width="10.00" shape="139.19,-1191.60 139.19,-906.74"/>
    </edge>
    <edge id="gneE23" from="gneJ12" to="gneJ11" priority="1">
        <lane id="gneE23_0" index="0" speed="13.89" length="196.97" width="10.00" shape="124.55,-891.65 -72.34,-885.70"/>
    </edge>
    <edge id="gneE24" from="gneJ11" to="gneJ10" priority="1">
        <lane id="gneE24_0" index="0" speed="13.89" length="239.85" width="10.00" shape="-77.19,-880.77 -80.33,-640.94"/>
    </edge>
    <edge id="gneE25" from="gneJ10" to="gneJ8" priority="1">
        <lane id="gneE25_0" index="0" speed="13.89" length="201.88" width="10.00" shape="-75.29,-635.87 126.59,-637.48"/>
    </edge>
    <edge id="gneE26" from="gneJ8" to="gneJ7" priority="1">
        <lane id="gneE26_0" index="0" speed="13.89" length="235.83" width="10.00" shape="141.81,-622.57 144.73,-386.76"/>
    </edge>
    <edge id="gneE27" from="gneJ7" to="gneJ4" priority="1">
        <lane id="gneE27_0" index="0" speed="13.89" length="203.32" width="10.00" shape="129.75,-371.47 -73.57,-369.94"/>
    </edge>
    <edge id="gneE28" from="gneJ4" to="gneJ3" priority="1">
        <lane id="gneE28_0" index="0" speed="13.89" length="223.08" width="10.00" shape="-78.53,-364.90 -77.00,-141.83"/>
    </edge>
    <edge id="gneE29" from="gneJ3" to="gneJ2" priority="1">
        <lane id="gneE29_0" index="0" speed="13.89" length="191.16" width="10.00" shape="-71.90,-136.86 119.23,-140.72"/>
    </edge>
    <edge id="gneE3" from="gneJ2" to="gneJ3" priority="1">
        <lane id="gneE3_0" index="0" speed="13.89" length="191.16" width="10.00" shape="119.43,-130.62 -71.69,-126.76"/>
    </edge>
    <edge id="gneE30" from="gneJ2" to="gneJ1" priority="1">
        <lane id="gneE30_0" index="0" speed="13.89" length="175.52" width="10.00" shape="134.63,-125.57 133.95,49.95"/>
    </edge>
    <edge id="gneE4" from="gneJ3" to="gneJ4" priority="1">
        <lane id="gneE4_0" index="0" speed="13.89" length="223.08" width="10.00" shape="-87.10,-141.76 -88.63,-364.83"/>
    </edge>
    <edge id="gneE6" from="gneJ4" to="gneJ7" priority="1">
        <lane id="gneE6_0" index="0" speed="13.89" length="203.32" width="10.00" shape="-73.65,-380.04 129.67,-381.57"/>
    </edge>
    <edge id="gneE7" from="gneJ7" to="gneJ8" priority="1">
        <lane id="gneE7_0" index="0" speed="13.89" length="235.83" width="10.00" shape="134.64,-386.64 131.71,-622.44"/>
    </edge>
    <edge id="gneE8" from="gneJ8" to="gneJ10" priority="1">
        <lane id="gneE8_0" index="0" speed="13.89" length="201.88" width="10.00" shape="126.67,-627.38 -75.21,-625.77"/>
    </edge>
    <edge id="gneE9" from="gneJ10" to="gneJ11" priority="1">
        <lane id="gneE9_0" index="0" speed="13.89" length="239.85" width="10.00" shape="-90.43,-641.07 -87.29,-880.90"/>
    </edge>

    <junction id="gneJ0" type="dead_end" x="-84.38" y="59.94" incLanes="gneE1_0" intLanes="" shape="-84.38,59.89 -84.38,69.99 -84.38,59.99"/>
    <junction id="gneJ1" type="priority" x="128.86" y="59.94" incLanes="gneE30_0 gneE0_0" intLanes=":gneJ1_0_0 :gneJ1_1_0" shape="138.95,49.97 118.85,49.89 118.85,69.99">
        <request index="0" response="00" foes="00" cont="0"/>
        <request index="1" response="00" foes="00" cont="0"/>
    </junction>
    <junction id="gneJ10" type="priority" x="-85.51" y="-630.74" incLanes="gneE8_0 gneE24_0" intLanes=":gneJ10_0_0 :gneJ10_1_0" shape="-75.17,-620.77 -75.33,-640.87 -95.42,-641.13">
        <request index="0" response="00" foes="00" cont="0"/>
        <request index="1" response="00" foes="00" cont="0"/>
    </junction>
    <junction id="gneJ11" type="priority" x="-82.11" y="-890.46" incLanes="gneE23_0 gneE9_0" intLanes=":gneJ11_0_0 :gneJ11_1_0" shape="-72.19,-880.71 -72.79,-900.80 -92.29,-880.97">
        <request index="0" response="00" foes="00" cont="0"/>
        <request index="1" response="00" foes="00" cont="0"/>
    </junction>
    <junction id="gneJ12" type="priority" x="134.14" y="-896.99" incLanes="gneE22_0 gneE10_0" intLanes=":gneJ12_0_0 :gneJ12_1_0" shape="144.19,-906.74 124.09,-906.74 124.70,-886.65">
        <request index="0" response="00" foes="00" cont="0"/>
        <request index="1" response="00" foes="00" cont="0"/>
    </junction>
    <junction id="gneJ13" type="priority" x="134.14" y="-1201.79" incLanes="gneE11_0 gneE21_0" intLanes=":gneJ13_0_0 :gneJ13_1_0" shape="124.09,-1191.60 144.19,-1191.60 123.82,-1211.70">
        <request index="0" response="00" foes="00" cont="0"/>
        <request index="1" response="00" foes="00" cont="0"/>
    </junction>
    <junction id="gneJ14" type="priority" x="-77.77" y="-1198.89" incLanes="gneE12_0 gneE20_0" intLanes=":gneJ14_0_0 :gneJ14_1_0" shape="-67.71,-1188.97 -67.98,-1209.07 -88.08,-1208.54">
        <request index="0" response="00" foes="00" cont="0"/>
        <request index="1" response="00" foes="00" cont="0"/>
    </junction>
    <junction id="gneJ15" type="priority" x="-83.57" y="-1419.51" incLanes="gneE13_0 gneE19_0" intLanes=":gneJ15_0_0 :gneJ15_1_0" shape="-93.35,-1409.08 -73.26,-1409.61 -73.57,-1429.71">
        <request index="0" response="00" foes="00" cont="0"/>
        <request index="1" response="00" foes="00" cont="0"/>
    </junction>
    <junction id="gneJ16" type="priority" x="132.65" y="-1422.79" incLanes="gneE18_0 gneE14_0" intLanes=":gneJ16_0_0 :gneJ16_1_0" shape="142.65,-1432.79 122.55,-1432.69 122.86,-1412.59">
        <request index="0" response="00" foes="00" cont="0"/>
        <request index="1" response="00" foes="00" cont="0"/>
    </junction>
    <junction id="gneJ2" type="priority" x="129.62" y="-135.88" incLanes="gneE29_0 gneE2_0" intLanes=":gneJ2_0_0 :gneJ2_1_0" shape="119.12,-145.72 119.53,-125.62 139.63,-125.55">
        <request index="0" response="00" foes="00" cont="0"/>
        <request index="1" response="00" foes="00" cont="0"/>
    </junction>
    <junction id="gneJ21" type="dead_end" x="131.01" y="-1747.89" incLanes="gneE17_0" intLanes="" shape="131.06,-1747.89 120.96,-1747.84 130.96,-1747.89"/>
    <junction id="gneJ3" type="priority" x="-81.98" y="-131.61" incLanes="gneE3_0 gneE28_0" intLanes=":gneJ3_0_0 :gneJ3_1_0" shape="-71.59,-121.76 -72.00,-141.86 -92.10,-141.72">
        <request index="0" response="00" foes="00" cont="0"/>
        <request index="1" response="00" foes="00" cont="0"/>
    </junction>
    <junction id="gneJ4" type="priority" x="-83.65" y="-374.91" incLanes="gneE4_0 gneE27_0" intLanes=":gneJ4_0_0 :gneJ4_1_0" shape="-93.63,-364.80 -73.53,-364.94 -73.68,-385.04">
        <request index="0" response="00" foes="00" cont="0"/>
        <request index="1" response="00" foes="00" cont="0"/>
    </junction>
    <junction id="gneJ7" type="priority" x="139.81" y="-376.60" incLanes="gneE26_0 gneE6_0" intLanes=":gneJ7_0_0 :gneJ7_1_0" shape="149.73,-386.82 129.64,-386.57 129.79,-366.47">
        <request index="0" response="00" foes="00" cont="0"/>
        <request index="1" response="00" foes="00" cont="0"/>
    </junction>
    <junction id="gneJ8" type="priority" x="136.63" y="-632.51" incLanes="gneE7_0 gneE25_0" intLanes=":gneJ8_0_0 :gneJ8_1_0" shape="126.71,-622.38 146.81,-622.63 126.55,-642.48">
        <request index="0" response="00" foes="00" cont="0"/>
        <request index="1" response="00" foes="00" cont="0"/>
    </junction>

    <connection from="gneE0" to="gneE2" fromLane="0" toLane="0" via=":gneJ1_1_0" dir="r" state="M"/>
    <connection from="gneE10" to="gneE11" fromLane="0" toLane="0" via=":gneJ12_1_0" dir="r" state="M"/>
    <connection from="gneE11" to="gneE12" fromLane="0" toLane="0" via=":gneJ13_0_0" dir="r" state="M"/>
    <connection from="gneE12" to="gneE13" fromLane="0" toLane="0" via=":gneJ14_0_0" dir="l" state="M"/>
    <connection from="gneE13" to="gneE14" fromLane="0" toLane="0" via=":gneJ15_0_0" dir="l" state="M"/>
    <connection from="gneE14" to="gneE17" fromLane="0" toLane="0" via=":gneJ16_1_0" dir="r" state="M"/>
    <connection from="gneE18" to="gneE19" fromLane="0" toLane="0" via=":gneJ16_0_0" dir="l" state="M"/>
    <connection from="gneE19" to="gneE20" fromLane="0" toLane="0" via=":gneJ15_1_0" dir="r" state="M"/>
    <connection from="gneE2" to="gneE3" fromLane="0" toLane="0" via=":gneJ2_1_0" dir="r" state="M"/>
    <connection from="gneE20" to="gneE21" fromLane="0" toLane="0" via=":gneJ14_1_0" dir="r" state="M"/>
    <connection from="gneE21" to="gneE22" fromLane="0" toLane="0" via=":gneJ13_1_0" dir="l" state="M"/>
    <connection from="gneE22" to="gneE23" fromLane="0" toLane="0" via=":gneJ12_0_0" dir="l" state="M"/>
    <connection from="gneE23" to="gneE24" fromLane="0" toLane="0" via=":gneJ11_0_0" dir="r" state="M"/>
    <connection from="gneE24" to="gneE25" fromLane="0" toLane="0" via=":gneJ10_1_0" dir="r" state="M"/>
    <connection from="gneE25" to="gneE26" fromLane="0" toLane="0" via=":gneJ8_1_0" dir="l" state="M"/>
    <connection from="gneE26" to="gneE27" fromLane="0" toLane="0" via=":gneJ7_0_0" dir="l" state="M"/>
    <connection from="gneE27" to="gneE28" fromLane="0" toLane="0" via=":gneJ4_1_0" dir="r" state="M"/>
    <connection from="gneE28" to="gneE29" fromLane="0" toLane="0" via=":gneJ3_1_0" dir="r" state="M"/>
    <connection from="gneE29" to="gneE30" fromLane="0" toLane="0" via=":gneJ2_0_0" dir="l" state="M"/>
    <connection from="gneE3" to="gneE4" fromLane="0" toLane="0" via=":gneJ3_0_0" dir="l" state="M"/>
    <connection from="gneE30" to="gneE1" fromLane="0" toLane="0" via=":gneJ1_0_0" dir="l" state="M"/>
    <connection from="gneE4" to="gneE6" fromLane="0" toLane="0" via=":gneJ4_0_0" dir="l" state="M"/>
    <connection from="gneE6" to="gneE7" fromLane="0" toLane="0" via=":gneJ7_1_0" dir="r" state="M"/>
    <connection from="gneE7" to="gneE8" fromLane="0" toLane="0" via=":gneJ8_0_0" dir="r" state="M"/>
    <connection from="gneE8" to="gneE9" fromLane="0" toLane="0" via=":gneJ10_0_0" dir="l" state="M"/>
    <connection from="gneE9" to="gneE10" fromLane="0" toLane="0" via=":gneJ11_1_0" dir="l" state="M"/>

    <connection from=":gneJ1_0" to="gneE1" fromLane="0" toLane="0" dir="s" state="M"/>
    <connection from=":gneJ1_1" to="gneE2" fromLane="0" toLane="0" dir="s" state="M"/>
    <connection from=":gneJ10_0" to="gneE9" fromLane="0" toLane="0" dir="s" state="M"/>
    <connection from=":gneJ10_1" to="gneE25" fromLane="0" toLane="0" dir="s" state="M"/>
    <connection from=":gneJ11_0" to="gneE24" fromLane="0" toLane="0" dir="s" state="M"/>
    <connection from=":gneJ11_1" to="gneE10" fromLane="0" toLane="0" dir="s" state="M"/>
    <connection from=":gneJ12_0" to="gneE23" fromLane="0" toLane="0" dir="s" state="M"/>
    <connection from=":gneJ12_1" to="gneE11" fromLane="0" toLane="0" dir="s" state="M"/>
    <connection from=":gneJ13_0" to="gneE12" fromLane="0" toLane="0" dir="s" state="M"/>
    <connection from=":gneJ13_1" to="gneE22" fromLane="0" toLane="0" dir="s" state="M"/>
    <connection from=":gneJ14_0" to="gneE13" fromLane="0" toLane="0" dir="s" state="M"/>
    <connection from=":gneJ14_1" to="gneE21" fromLane="0" toLane="0" dir="s" state="M"/>
    <connection from=":gneJ15_0" to="gneE14" fromLane="0" toLane="0" dir="s" state="M"/>
    <connection from=":gneJ15_1" to="gneE20" fromLane="0" toLane="0" dir="s" state="M"/>
    <connection from=":gneJ16_0" to="gneE19" fromLane="0" toLane="0" dir="s" state="M"/>
    <connection from=":gneJ16_1" to="gneE17" fromLane="0" toLane="0" dir="s" state="M"/>
    <connection from=":gneJ2_0" to="gneE30" fromLane="0" toLane="0" dir="s" state="M"/>
    <connection from=":gneJ2_1" to="gneE3" fromLane="0" toLane="0" dir="s" state="M"/>
    <connection from=":gneJ3_0" to="gneE4" fromLane="0" toLane="0" dir="s" state="M"/>
    <connection from=":gneJ3_1" to="gneE29" fromLane="0" toLane="0" dir="s" state="M"/>
    <connection from=":gneJ4_0" to="gneE6" fromLane="0" toLane="0" dir="s" state="M"/>
    <connection from=":gneJ4_1" to="gneE28" fromLane="0" toLane="0" dir="s" state="M"/>
    <connection from=":gneJ7_0" to="gneE27" fromLane="0" toLane="0" dir="s" state="M"/>
    <connection from=":gneJ7_1" to="gneE7" fromLane="0" toLane="0" dir="s" state="M"/>
    <connection from=":gneJ8_0" to="gneE8" fromLane="0" toLane="0" dir="s" state="M"/>
    <connection from=":gneJ8_1" to="gneE26" fromLane="0" toLane="0" dir="s" state="M"/>

</net>
