<?xml version="1.0" encoding="UTF-8"?>

<!-- generated on 06/16/20 16:43:05 by Eclipse SUMO netedit Version 1.6.0
<configuration xmlns:xsi="http://www.w3.org/2001/XMLSchema-instance" xsi:noNamespaceSchemaLocation="http://sumo.dlr.de/xsd/netconvertConfiguration.xsd">

    <input>
        <sumo-net-file value="D:\ProjektSS2020\Fahrsimulator\osds3\Maps\FussgaengerRadfahrerDemo2\FussgaengerRadfahrerDemo2.net.xml"/>
    </input>

    <output>
        <output-file value="D:\ProjektSS2020\Fahrsimulator\osds3\Maps\FussgaengerRadfahrerDemo2\FussgaengerRadfahrerDemo2.net.xml"/>
    </output>

    <processing>
        <geometry.min-radius.fix.railways value="false"/>
        <geometry.max-grade.fix value="false"/>
        <offset.disable-normalization value="true"/>
        <lefthand value="false"/>
    </processing>

    <junctions>
        <no-turnarounds value="true"/>
        <junctions.corner-detail value="5"/>
        <junctions.limit-turn-speed value="5.5"/>
        <rectangular-lane-cut value="false"/>
    </junctions>

    <pedestrian>
        <walkingareas value="false"/>
    </pedestrian>

    <report>
        <aggregate-warnings value="5"/>
    </report>

</configuration>
-->

<net version="1.6" junctionCornerDetail="5" limitTurnSpeed="5.50" xmlns:xsi="http://www.w3.org/2001/XMLSchema-instance" xsi:noNamespaceSchemaLocation="http://sumo.dlr.de/xsd/net_file.xsd">

    <location netOffset="0.00,0.00" convBoundary="-100.00,-200.00,200.00,100.00" origBoundary="-10000000000.00,-10000000000.00,10000000000.00,10000000000.00" projParameter="!"/>

    <edge id=":gneJ0_0" function="internal">
        <lane id=":gneJ0_0_0" index="0" disallow="pedestrian" speed="8.04" length="5.69" width="3.50" shape="2.28,101.75 0.83,101.62 -0.50,101.22 -1.73,100.56 -2.85,99.63"/>
    </edge>
    <edge id=":gneJ0_1" function="internal">
        <lane id=":gneJ0_1_0" index="0" disallow="pedestrian" speed="5.98" length="2.95" width="3.50" shape="-0.37,97.15 0.20,97.63 0.84,97.98 1.53,98.18 2.28,98.25"/>
    </edge>
    <edge id=":gneJ1_0" function="internal">
        <lane id=":gneJ1_0_0" index="0" disallow="pedestrian" speed="8.11" length="5.80" width="3.50" shape="102.85,99.63 101.61,100.79 100.59,101.42 99.42,101.69 97.72,101.75"/>
    </edge>
    <edge id=":gneJ1_1" function="internal">
        <lane id=":gneJ1_1_0" index="0" disallow="pedestrian" speed="5.98" length="2.95" width="3.50" shape="97.72,98.25 98.47,98.18 99.16,97.98 99.80,97.63 100.37,97.15"/>
    </edge>
    <edge id=":gneJ3_0" function="internal">
        <lane id=":gneJ3_0_0" index="0" disallow="pedestrian" speed="8.04" length="5.69" width="3.50" shape="201.75,-2.28 201.62,-0.83 201.22,0.50 200.56,1.73 199.63,2.85"/>
    </edge>
    <edge id=":gneJ3_1" function="internal">
        <lane id=":gneJ3_1_0" index="0" disallow="pedestrian" speed="6.03" length="3.00" width="3.50" shape="197.15,0.37 197.75,-0.27 198.08,-0.79 198.22,-1.40 198.25,-2.28"/>
    </edge>
    <edge id=":gneJ4_0" function="internal">
        <lane id=":gneJ4_0_0" index="0" disallow="pedestrian" speed="5.98" length="2.95" width="3.50" shape="198.25,-97.72 198.18,-98.47 197.98,-99.16 197.63,-99.80 197.15,-100.37"/>
    </edge>
    <edge id=":gneJ4_1" function="internal">
        <lane id=":gneJ4_1_0" index="0" disallow="pedestrian" speed="8.04" length="5.69" width="3.50" shape="199.63,-102.85 200.56,-101.73 201.22,-100.50 201.62,-99.17 201.75,-97.72"/>
    </edge>
    <edge id=":gneJ5_0" function="internal">
        <lane id=":gneJ5_0_0" index="0" disallow="pedestrian" speed="5.98" length="2.95" width="3.50" shape="100.37,-197.15 99.80,-197.63 99.16,-197.98 98.47,-198.18 97.72,-198.25"/>
    </edge>
    <edge id=":gneJ5_1" function="internal">
        <lane id=":gneJ5_1_0" index="0" disallow="pedestrian" speed="8.04" length="5.69" width="3.50" shape="97.72,-201.75 99.17,-201.62 100.50,-201.22 101.73,-200.56 102.85,-199.63"/>
    </edge>
    <edge id=":gneJ6_0" function="internal">
        <lane id=":gneJ6_0_0" index="0" disallow="pedestrian" speed="5.98" length="2.95" width="3.50" shape="2.28,-198.25 1.53,-198.18 0.84,-197.98 0.20,-197.63 -0.37,-197.15"/>
    </edge>
    <edge id=":gneJ6_1" function="internal">
        <lane id=":gneJ6_1_0" index="0" disallow="pedestrian" speed="8.04" length="5.69" width="3.50" shape="-2.85,-199.63 -1.73,-200.56 -0.50,-201.22 0.83,-201.62 2.28,-201.75"/>
    </edge>
    <edge id=":gneJ7_0" function="internal">
        <lane id=":gneJ7_0_0" index="0" disallow="pedestrian" speed="8.11" length="5.80" width="3.50" shape="-101.75,-97.72 -101.69,-99.42 -101.42,-100.59 -100.79,-101.61 -99.63,-102.85"/>
    </edge>
    <edge id=":gneJ7_1" function="internal">
        <lane id=":gneJ7_1_0" index="0" disallow="pedestrian" speed="5.98" length="2.95" width="3.50" shape="-97.15,-100.37 -97.63,-99.80 -97.98,-99.16 -98.18,-98.47 -98.25,-97.72"/>
    </edge>
    <edge id=":gneJ8_0" function="internal">
        <lane id=":gneJ8_0_0" index="0" disallow="pedestrian" speed="8.04" length="5.69" width="3.50" shape="-99.63,2.85 -100.56,1.73 -101.22,0.50 -101.62,-0.83 -101.75,-2.28"/>
    </edge>
    <edge id=":gneJ8_1" function="internal">
        <lane id=":gneJ8_1_0" index="0" disallow="pedestrian" speed="5.98" length="2.95" width="3.50" shape="-98.25,-2.28 -98.18,-1.53 -97.98,-0.84 -97.63,-0.20 -97.15,0.37"/>
    </edge>

    <edge id="-gneE0" from="gneJ1" to="gneJ0" priority="-1">
        <lane id="-gneE0_0" index="0" allow="pedestrian" speed="13.89" length="95.44" width="2.00" shape="97.72,104.50 2.28,104.50"/>
        <lane id="-gneE0_1" index="1" disallow="pedestrian" speed="13.89" length="95.44" width="3.50" shape="97.72,101.75 2.28,101.75"/>
    </edge>
    <edge id="-gneE1" from="gneJ3" to="gneJ1" priority="-1">
        <lane id="-gneE1_0" index="0" allow="pedestrian" speed="13.89" length="136.87" width="2.00" shape="201.57,4.79 104.79,101.57"/>
        <lane id="-gneE1_1" index="1" disallow="pedestrian" speed="13.89" length="136.87" width="3.50" shape="199.63,2.85 102.85,99.63"/>
    </edge>
    <edge id="-gneE2" from="gneJ4" to="gneJ3" priority="-1">
        <lane id="-gneE2_0" index="0" allow="pedestrian" speed="13.89" length="95.44" width="2.00" shape="204.50,-97.72 204.50,-2.28"/>
        <lane id="-gneE2_1" index="1" disallow="pedestrian" speed="13.89" length="95.44" width="3.50" shape="201.75,-97.72 201.75,-2.28"/>
    </edge>
    <edge id="-gneE3" from="gneJ5" to="gneJ4" priority="-1">
        <lane id="-gneE3_0" index="0" allow="pedestrian" speed="13.89" length="136.87" width="2.00" shape="104.79,-201.57 201.57,-104.79"/>
        <lane id="-gneE3_1" index="1" disallow="pedestrian" speed="13.89" length="136.87" width="3.50" shape="102.85,-199.63 199.63,-102.85"/>
    </edge>
    <edge id="-gneE4" from="gneJ6" to="gneJ5" priority="-1">
        <lane id="-gneE4_0" index="0" allow="pedestrian" speed="13.89" length="95.44" width="2.00" shape="2.28,-204.50 97.72,-204.50"/>
        <lane id="-gneE4_1" index="1" disallow="pedestrian" speed="13.89" length="95.44" width="3.50" shape="2.28,-201.75 97.72,-201.75"/>
    </edge>
    <edge id="-gneE5" from="gneJ7" to="gneJ6" priority="-1">
        <lane id="-gneE5_0" index="0" allow="pedestrian" speed="13.89" length="136.87" width="2.00" shape="-101.57,-104.79 -4.79,-201.57"/>
        <lane id="-gneE5_1" index="1" disallow="pedestrian" speed="13.89" length="136.87" width="3.50" shape="-99.63,-102.85 -2.85,-199.63"/>
    </edge>
    <edge id="-gneE6" from="gneJ8" to="gneJ7" priority="-1">
        <lane id="-gneE6_0" index="0" allow="pedestrian" speed="13.89" length="95.44" width="2.00" shape="-104.50,-2.28 -104.50,-97.72"/>
        <lane id="-gneE6_1" index="1" disallow="pedestrian" speed="13.89" length="95.44" width="3.50" shape="-101.75,-2.28 -101.75,-97.72"/>
    </edge>
    <edge id="-gneE7" from="gneJ0" to="gneJ8" priority="-1">
        <lane id="-gneE7_0" index="0" allow="pedestrian" speed="13.89" length="136.87" width="2.00" shape="-4.79,101.57 -101.57,4.79"/>
        <lane id="-gneE7_1" index="1" disallow="pedestrian" speed="13.89" length="136.87" width="3.50" shape="-2.85,99.63 -99.63,2.85"/>
    </edge>
    <edge id="gneE0" from="gneJ0" to="gneJ1" priority="-1">
        <lane id="gneE0_0" index="0" allow="pedestrian" speed="13.89" length="95.44" width="2.00" shape="2.28,95.50 97.72,95.50"/>
        <lane id="gneE0_1" index="1" disallow="pedestrian" speed="13.89" length="95.44" width="3.50" shape="2.28,98.25 97.72,98.25"/>
    </edge>
    <edge id="gneE1" from="gneJ1" to="gneJ3" priority="-1">
        <lane id="gneE1_0" index="0" allow="pedestrian" speed="13.89" length="136.87" width="2.00" shape="98.43,95.21 195.21,-1.57"/>
        <lane id="gneE1_1" index="1" disallow="pedestrian" speed="13.89" length="136.87" width="3.50" shape="100.37,97.15 197.15,0.37"/>
    </edge>
    <edge id="gneE2" from="gneJ3" to="gneJ4" priority="-1">
        <lane id="gneE2_0" index="0" allow="pedestrian" speed="13.89" length="95.44" width="2.00" shape="195.50,-2.28 195.50,-97.72"/>
        <lane id="gneE2_1" index="1" disallow="pedestrian" speed="13.89" length="95.44" width="3.50" shape="198.25,-2.28 198.25,-97.72"/>
    </edge>
    <edge id="gneE3" from="gneJ4" to="gneJ5" priority="-1">
        <lane id="gneE3_0" index="0" allow="pedestrian" speed="13.89" length="136.87" width="2.00" shape="195.21,-98.43 98.43,-195.21"/>
        <lane id="gneE3_1" index="1" disallow="pedestrian" speed="13.89" length="136.87" width="3.50" shape="197.15,-100.37 100.37,-197.15"/>
    </edge>
    <edge id="gneE4" from="gneJ5" to="gneJ6" priority="-1">
        <lane id="gneE4_0" index="0" allow="pedestrian" speed="13.89" length="95.44" width="2.00" shape="97.72,-195.50 2.28,-195.50"/>
        <lane id="gneE4_1" index="1" disallow="pedestrian" speed="13.89" length="95.44" width="3.50" shape="97.72,-198.25 2.28,-198.25"/>
    </edge>
    <edge id="gneE5" from="gneJ6" to="gneJ7" priority="-1">
        <lane id="gneE5_0" index="0" allow="pedestrian" speed="13.89" length="136.87" width="2.00" shape="1.57,-195.21 -95.21,-98.43"/>
        <lane id="gneE5_1" index="1" disallow="pedestrian" speed="13.89" length="136.87" width="3.50" shape="-0.37,-197.15 -97.15,-100.37"/>
    </edge>
    <edge id="gneE6" from="gneJ7" to="gneJ8" priority="-1">
        <lane id="gneE6_0" index="0" allow="pedestrian" speed="13.89" length="95.44" width="2.00" shape="-95.50,-97.72 -95.50,-2.28"/>
        <lane id="gneE6_1" index="1" disallow="pedestrian" speed="13.89" length="95.44" width="3.50" shape="-98.25,-97.72 -98.25,-2.28"/>
    </edge>
    <edge id="gneE7" from="gneJ8" to="gneJ0" priority="-1">
        <lane id="gneE7_0" index="0" allow="pedestrian" speed="13.89" length="136.87" width="2.00" shape="-95.21,-1.57 1.57,95.21"/>
        <lane id="gneE7_1" index="1" disallow="pedestrian" speed="13.89" length="136.87" width="3.50" shape="-97.15,0.37 -0.37,97.15"/>
    </edge>

    <junction id="gneJ0" type="priority" x="0.00" y="100.00" incLanes="-gneE0_0 -gneE0_1 gneE7_0 gneE7_1" intLanes=":gneJ0_0_0 :gneJ0_1_0" shape="2.28,105.50 2.28,94.50 -5.50,102.28 -3.20,104.07 -1.94,104.69 -0.61,105.14 0.80,105.41">
        <request index="0" response="00" foes="00" cont="0"/>
        <request index="1" response="00" foes="00" cont="0"/>
    </junction>
    <junction id="gneJ1" type="priority" x="100.00" y="100.00" incLanes="-gneE1_0 -gneE1_1 gneE0_0 gneE0_1" intLanes=":gneJ1_0_0 :gneJ1_1_0" shape="105.50,102.28 97.72,94.50 97.72,105.50 100.95,105.33 102.07,105.01 103.10,104.44 104.18,103.55">
        <request index="0" response="00" foes="00" cont="0"/>
        <request index="1" response="00" foes="00" cont="0"/>
    </junction>
    <junction id="gneJ3" type="priority" x="200.00" y="0.00" incLanes="-gneE2_0 -gneE2_1 gneE1_0 gneE1_1" intLanes=":gneJ3_0_0 :gneJ3_1_0" shape="205.50,-2.28 194.50,-2.28 202.28,5.50 204.44,3.10 205.01,2.07 205.33,0.95 205.47,-0.45">
        <request index="0" response="00" foes="00" cont="0"/>
        <request index="1" response="00" foes="00" cont="0"/>
    </junction>
    <junction id="gneJ4" type="priority" x="200.00" y="-100.00" incLanes="gneE2_0 gneE2_1 -gneE3_0 -gneE3_1" intLanes=":gneJ4_0_0 :gneJ4_1_0" shape="194.50,-97.72 205.50,-97.72 205.14,-100.61 204.69,-101.94 204.07,-103.20 203.26,-104.39 202.28,-105.50">
        <request index="0" response="00" foes="00" cont="0"/>
        <request index="1" response="00" foes="00" cont="0"/>
    </junction>
    <junction id="gneJ5" type="priority" x="100.00" y="-200.00" incLanes="gneE3_0 gneE3_1 -gneE4_0 -gneE4_1" intLanes=":gneJ5_0_0 :gneJ5_1_0" shape="97.72,-194.50 105.50,-202.28 103.20,-204.07 101.94,-204.69 100.61,-205.14 99.20,-205.41 97.72,-205.50">
        <request index="0" response="00" foes="00" cont="0"/>
        <request index="1" response="00" foes="00" cont="0"/>
    </junction>
    <junction id="gneJ6" type="priority" x="0.00" y="-200.00" incLanes="gneE4_0 gneE4_1 -gneE5_0 -gneE5_1" intLanes=":gneJ6_0_0 :gneJ6_1_0" shape="2.28,-194.50 2.28,-205.50 -0.61,-205.14 -1.94,-204.69 -3.20,-204.07 -4.39,-203.26 -5.50,-202.28">
        <request index="0" response="00" foes="00" cont="0"/>
        <request index="1" response="00" foes="00" cont="0"/>
    </junction>
    <junction id="gneJ7" type="priority" x="-100.00" y="-100.00" incLanes="-gneE6_0 -gneE6_1 gneE5_0 gneE5_1" intLanes=":gneJ7_0_0 :gneJ7_1_0" shape="-105.50,-97.72 -94.50,-97.72 -102.28,-105.50 -104.07,-103.20 -104.69,-101.94 -105.14,-100.61 -105.41,-99.20">
        <request index="0" response="00" foes="00" cont="0"/>
        <request index="1" response="00" foes="00" cont="0"/>
    </junction>
    <junction id="gneJ8" type="priority" x="-100.00" y="0.00" incLanes="-gneE7_0 -gneE7_1 gneE6_0 gneE6_1" intLanes=":gneJ8_0_0 :gneJ8_1_0" shape="-102.28,5.50 -94.50,-2.28 -105.50,-2.28 -105.33,0.95 -105.01,2.07 -104.44,3.10 -103.55,4.18">
        <request index="0" response="00" foes="00" cont="0"/>
        <request index="1" response="00" foes="00" cont="0"/>
    </junction>

    <connection from="-gneE0" to="-gneE7" fromLane="1" toLane="1" via=":gneJ0_0_0" dir="l" state="M"/>
    <connection from="-gneE1" to="-gneE0" fromLane="1" toLane="1" via=":gneJ1_0_0" dir="l" state="M"/>
    <connection from="-gneE2" to="-gneE1" fromLane="1" toLane="1" via=":gneJ3_0_0" dir="l" state="M"/>
    <connection from="-gneE3" to="-gneE2" fromLane="1" toLane="1" via=":gneJ4_1_0" dir="l" state="M"/>
    <connection from="-gneE4" to="-gneE3" fromLane="1" toLane="1" via=":gneJ5_1_0" dir="l" state="M"/>
    <connection from="-gneE5" to="-gneE4" fromLane="1" toLane="1" via=":gneJ6_1_0" dir="l" state="M"/>
    <connection from="-gneE6" to="-gneE5" fromLane="1" toLane="1" via=":gneJ7_0_0" dir="l" state="M"/>
    <connection from="-gneE7" to="-gneE6" fromLane="1" toLane="1" via=":gneJ8_0_0" dir="l" state="M"/>
    <connection from="gneE0" to="gneE1" fromLane="1" toLane="1" via=":gneJ1_1_0" dir="r" state="M"/>
    <connection from="gneE1" to="gneE2" fromLane="1" toLane="1" via=":gneJ3_1_0" dir="r" state="M"/>
    <connection from="gneE2" to="gneE3" fromLane="1" toLane="1" via=":gneJ4_0_0" dir="r" state="M"/>
    <connection from="gneE3" to="gneE4" fromLane="1" toLane="1" via=":gneJ5_0_0" dir="r" state="M"/>
    <connection from="gneE4" to="gneE5" fromLane="1" toLane="1" via=":gneJ6_0_0" dir="r" state="M"/>
    <connection from="gneE5" to="gneE6" fromLane="1" toLane="1" via=":gneJ7_1_0" dir="r" state="M"/>
    <connection from="gneE6" to="gneE7" fromLane="1" toLane="1" via=":gneJ8_1_0" dir="r" state="M"/>
    <connection from="gneE7" to="gneE0" fromLane="1" toLane="1" via=":gneJ0_1_0" dir="r" state="M"/>

    <connection from=":gneJ0_0" to="-gneE7" fromLane="0" toLane="1" dir="l" state="M"/>
    <connection from=":gneJ0_1" to="gneE0" fromLane="0" toLane="1" dir="r" state="M"/>
    <connection from=":gneJ1_0" to="-gneE0" fromLane="0" toLane="1" dir="l" state="M"/>
    <connection from=":gneJ1_1" to="gneE1" fromLane="0" toLane="1" dir="r" state="M"/>
    <connection from=":gneJ3_0" to="-gneE1" fromLane="0" toLane="1" dir="l" state="M"/>
    <connection from=":gneJ3_1" to="gneE2" fromLane="0" toLane="1" dir="r" state="M"/>
    <connection from=":gneJ4_0" to="gneE3" fromLane="0" toLane="1" dir="r" state="M"/>
    <connection from=":gneJ4_1" to="-gneE2" fromLane="0" toLane="1" dir="l" state="M"/>
    <connection from=":gneJ5_0" to="gneE4" fromLane="0" toLane="1" dir="r" state="M"/>
    <connection from=":gneJ5_1" to="-gneE3" fromLane="0" toLane="1" dir="l" state="M"/>
    <connection from=":gneJ6_0" to="gneE5" fromLane="0" toLane="1" dir="r" state="M"/>
    <connection from=":gneJ6_1" to="-gneE4" fromLane="0" toLane="1" dir="l" state="M"/>
    <connection from=":gneJ7_0" to="-gneE5" fromLane="0" toLane="1" dir="l" state="M"/>
    <connection from=":gneJ7_1" to="gneE6" fromLane="0" toLane="1" dir="r" state="M"/>
    <connection from=":gneJ8_0" to="-gneE6" fromLane="0" toLane="1" dir="l" state="M"/>
    <connection from=":gneJ8_1" to="gneE7" fromLane="0" toLane="1" dir="r" state="M"/>

</net>
