<?xml version="1.0" encoding="UTF-8"?>

<!-- generated on 10/22/17 10:10:25 by SUMO polyconvert Version 0.31.0
<?xml version="1.0" encoding="UTF-8"?>

<configuration xmlns:xsi="http://www.w3.org/2001/XMLSchema-instance" xsi:noNamespaceSchemaLocation="http://sumo.dlr.de/xsd/polyconvertConfiguration.xsd">

    <input>
        <net-file value="geisenfeld.net.xml"/>
        <osm-files value="map.osm"/>
    </input>

    <output>
        <output-file value="geisenfeld.poly.xml"/>
    </output>

    <processing>
        <poi-layer-offset value="5"/>
    </processing>

</configuration>
-->

<additional xmlns:xsi="http://www.w3.org/2001/XMLSchema-instance" xsi:noNamespaceSchemaLocation="http://sumo.dlr.de/xsd/additional_file.xsd">
    <location netOffset="-685841.34,-5392029.41" convBoundary="-1611.29,-21231.42,26568.93,16122.51" origBoundary="11.501983,48.456267,11.874456,48.798910" projParameter="+proj=utm +zone=32 +ellps=WGS84 +datum=WGS84 +units=m +no_defs"/>

    <poly id="104877158" type="water" color="181,209,209" fill="0" layer="-4.00" shape="8862.93,3966.95 8659.18,3927.20 8581.27,3942.80 8510.31,3965.56 8433.53,3979.79 8407.97,3984.10 8366.26,3992.42 8342.12,3970.90 8315.92,3950.59 8290.37,3950.09 8273.63,3954.58 8239.59,4008.36 8230.79,4028.01 8227.81,4042.16 8245.20,4076.07 8244.21,4085.38 8247.94,4093.92 8260.40,4109.41"/>
    <poly id="104877197" type="water" color="181,209,209" fill="0" layer="-4.00" shape="8581.27,3942.80 8586.63,3997.90 8429.76,4044.84 8300.54,4090.18 8260.40,4109.41 8256.09,4110.75"/>
    <poly id="113168603" type="landuse" color="194,194,130" fill="1" layer="-3.00" shape="5490.51,3042.57 5491.37,3030.76 5487.97,3023.35 5487.31,3016.04 5496.52,3000.41 5501.19,2997.39 5515.75,2998.80 5532.47,3004.37 5536.86,3009.53 5538.25,3022.33 5537.08,3030.04 5533.27,3034.46 5523.81,3030.50 5516.56,3028.88 5509.18,3030.91 5505.43,3033.96 5503.89,3038.92 5498.71,3043.30 5490.51,3042.57"/>
    <poly id="113168605" type="landuse" color="194,194,130" fill="1" layer="-3.00" shape="5488.43,3087.47 5489.67,3080.57 5491.79,3072.21 5498.45,3064.24 5507.86,3056.37 5519.86,3052.67 5533.14,3051.76 5538.99,3054.24 5536.95,3060.54 5530.82,3066.25 5519.00,3077.69 5510.59,3083.32 5499.54,3086.14 5493.10,3087.29 5488.43,3087.47"/>
    <poly id="116250492" type="forest" color="140,196,107" fill="1" layer="-3.00" shape="4352.34,4016.37 4349.66,3996.95 4360.11,3984.64 4381.57,3982.70 4401.63,3982.71 4407.28,3993.57 4404.04,4010.12 4394.26,4022.46 4381.83,4034.04 4366.45,4034.18 4352.34,4016.37"/>
    <poly id="116250493" type="landuse" color="194,194,130" fill="1" layer="-3.00" shape="3821.99,4022.15 3797.48,3994.26 4009.81,3785.44 4020.75,3817.81 3918.57,3913.02 3937.75,3939.00 3840.53,4043.09 3821.99,4022.15"/>
    <poly id="117859082" type="parking" color="184,184,179" fill="1" layer="-1.00" shape="6424.30,3826.48 6425.51,3818.98 6426.15,3811.32 6418.43,3802.24 6402.36,3792.53 6390.89,3784.68 6374.91,3782.30 6372.18,3821.70 6414.49,3825.58 6424.30,3826.48"/>
    <poly id="117859083" type="tourism" color="207,245,201" fill="1" layer="-2.00" shape="6420.65,3866.16 6368.53,3861.39 6372.18,3821.70 6414.49,3825.58 6424.30,3826.48 6421.44,3857.68 6420.65,3866.16"/>
    <poly id="140657202" type="landuse" color="194,194,130" fill="1" layer="-3.00" shape="5701.47,1624.78 5687.51,1629.96 5686.89,1620.60 5699.58,1615.39 5681.01,1616.26 5647.18,1635.92 5624.80,1628.21 5588.16,1591.49 5550.12,1604.04 5584.32,1677.59 5605.87,1681.50 5614.34,1688.52 5629.17,1691.15 5643.31,1696.87 5651.23,1706.96 5654.98,1716.35 5656.00,1726.25 5655.16,1736.27 5644.73,1751.16 5624.46,1766.40 5638.88,1787.11 5654.45,1806.59 5766.56,1900.88 5776.70,1883.90 5777.72,1848.85 5783.68,1822.32 5760.44,1809.19 5773.85,1788.81 5771.15,1755.73 5772.81,1749.61 5757.18,1687.67 5723.32,1684.06 5717.76,1659.31 5726.13,1644.86 5701.47,1624.78"/>
    <poly id="140657238" type="landuse" color="194,194,130" fill="1" layer="-3.00" shape="6725.89,4960.59 6730.98,4965.29 6763.71,4978.07 6770.84,4981.72 6800.06,4996.68 6819.53,4957.86 6828.47,4934.90 6826.04,4877.95 6834.51,4857.38 6865.78,4850.71 6913.20,4868.55 6932.19,4867.78 6963.92,4866.49 6976.09,4832.63 6968.67,4793.34 6939.94,4745.57 6933.48,4717.43 6950.43,4685.70 6998.03,4655.71 7057.45,4674.92 7067.31,4643.28 7065.37,4621.34 7040.17,4588.50 7025.34,4529.11 6992.90,4490.97 7017.71,4436.98 7045.52,4432.88 7033.31,4375.93 7130.89,4345.29 7131.67,4293.15 7125.40,4279.14 7091.25,4261.14 7095.87,4274.43 7031.41,4308.22 7024.80,4309.53 6977.89,4318.83 6938.75,4338.19 6939.92,4382.48 6875.98,4385.83 6793.86,4389.78 6802.50,4418.19 6885.65,4414.50 6905.54,4566.44 6924.11,4571.72 6861.82,4754.61 6860.13,4755.23 6836.88,4763.83 6784.65,4783.16 6704.90,4801.12 6708.68,4829.41 6720.54,4873.11 6723.97,4953.90 6725.89,4960.59"/>
    <poly id="140657246" type="landuse" color="194,194,130" fill="1" layer="-3.00" shape="5805.79,2297.70 5790.38,2302.01 5772.44,2301.63 5734.06,2296.70 5701.80,2290.29 5652.74,2278.45 5609.87,2270.23 5563.29,2263.80 5528.05,2259.21 5488.04,2259.30 5445.76,2262.22 5409.50,2266.79 5378.99,2283.45 5355.20,2306.61 5321.63,2300.61 5309.38,2322.75 5345.56,2333.57 5339.57,2365.24 5377.61,2378.55 5375.73,2405.35 5372.43,2423.96 5416.93,2427.31 5395.62,2452.72 5405.08,2477.65 5477.29,2532.61 5463.17,2558.69 5458.30,2567.13 5477.00,2575.17 5510.70,2587.32 5570.55,2612.16 5614.16,2637.87 5659.21,2662.25 5684.75,2666.99 5744.98,2670.57 5793.11,2672.57 5878.15,2675.56 5890.78,2591.00 5897.02,2542.48 5905.04,2536.04 5919.09,2531.51 5885.75,2460.90 5879.61,2449.36 5867.80,2427.21 5805.79,2297.70"/>
    <poly id="140657270" type="water" color="181,209,209" fill="0" layer="-4.00" shape="6345.01,2021.58 6330.97,2025.43"/>
    <poly id="142303519" type="forest" color="140,196,107" fill="1" layer="-3.00" shape="8613.82,3077.37 8610.98,3117.49 8581.26,3125.52 8566.85,3111.25 8507.48,3136.01 8508.50,3148.37 8525.78,3142.81 8535.22,3153.64 8556.56,3146.04 8555.67,3140.21 8616.33,3120.57 8626.68,3136.15 8634.23,3117.58 8711.26,3086.91 8764.24,3089.47 8704.03,3054.40 8660.09,3063.75 8627.17,3080.36 8613.82,3077.37"/>
    <poly id="142303527" type="forest" color="140,196,107" fill="1" layer="-3.00" shape="8794.45,3049.31 8800.89,3007.38 8863.84,2984.20 8891.61,2990.60 8895.03,2965.36 8870.68,2975.74 8862.89,2964.15 8759.34,3000.53 8768.14,3028.51 8794.45,3049.31"/>
    <poly id="142411201" type="landuse" color="194,194,130" fill="1" layer="-3.00" shape="5653.79,4509.58 5652.61,4486.97 5651.54,4466.35 5654.02,4381.88 5606.61,4376.33 5611.38,4343.89 5565.42,4310.17 5600.57,4255.74 5559.84,4230.32 5529.46,4211.36 5550.35,4189.05 5569.12,4169.00 5586.27,4178.41 5630.11,4119.81 5612.49,4109.16 5585.28,4090.83 5682.44,3937.03 5658.33,3919.79 5677.65,3889.89 5691.75,3894.62 5709.02,3865.86 5725.54,3873.59 5747.03,3835.71 5766.36,3804.10 5707.97,3784.07 5727.53,3737.75 5729.57,3729.95 5714.73,3724.62 5732.16,3651.94 5734.29,3647.28 5737.55,3641.47 5738.74,3635.60 5738.46,3629.49 5739.67,3622.83 5743.57,3612.62 5743.78,3606.61 5691.63,3603.21 5690.91,3585.77 5665.89,3579.76 5664.63,3569.07 5586.27,3562.20 5587.20,3544.50 5558.85,3541.28 5545.67,3595.64 5528.74,3598.62 5517.99,3648.56 5504.77,3647.15 5510.67,3607.04 5494.25,3604.86 5496.69,3571.41 5485.82,3567.49 5465.98,3684.52 5442.52,3680.18 5456.93,3580.04 5439.46,3574.02 5433.07,3600.71 5392.03,3590.23 5373.43,3652.03 5278.47,3633.67 5217.56,3665.13 5184.40,3670.13 5146.50,3662.39 5135.26,3650.39 5110.44,3666.96 5001.66,3708.09 4952.50,3746.09 4835.76,3878.84 4796.84,3967.50 4756.01,4002.55 4640.11,4044.75 4594.08,4073.52 4588.16,4086.31 4464.73,4233.71 4378.77,4312.17 4243.17,4419.98 4324.16,4513.23 4385.25,4471.77 4406.33,4490.72 4353.69,4545.93 4361.86,4554.64 4440.74,4487.32 4468.61,4494.88 4383.83,4574.08 4415.58,4608.90 4503.50,4520.64 4518.99,4521.81 4566.28,4481.50 4585.57,4446.69 4631.19,4417.29 4657.09,4397.53 4671.52,4391.57 4700.14,4373.78 4717.42,4383.73 4743.78,4354.98 4875.77,4239.58 4887.34,4251.58 4866.55,4273.13 4884.27,4294.05 4766.77,4396.57 4746.24,4377.33 4718.07,4408.45 4445.97,4647.50 4505.56,4710.40 4525.33,4693.74 4539.48,4707.90 4523.02,4721.48 4534.41,4736.00 4794.50,4510.92 4779.83,4498.56 4797.57,4487.77 4808.24,4496.79 4824.40,4492.33 4539.57,4745.76 4594.44,4813.27 4871.26,4584.08 4875.31,4583.73 4836.24,4620.13 4860.31,4696.88 5039.32,4539.50 5016.27,4513.55 5134.30,4409.23 5161.14,4438.79 5193.64,4411.40 5169.58,4379.35 5209.99,4347.65 5238.56,4370.98 5292.18,4407.69 5355.39,4438.80 5359.78,4430.74 5402.86,4454.78 5445.57,4469.69 5581.22,4488.68 5634.06,4508.04 5653.79,4509.58"/>
    <poly id="142411203" type="forest" color="140,196,107" fill="1" layer="-3.00" shape="5443.16,2114.78 5444.34,2107.52 5443.77,2099.22 5443.21,2090.49 5442.57,2084.30 5443.31,2068.82 5442.72,2055.20 5440.41,2047.89 5437.62,2046.36 5433.33,2049.14 5428.69,2047.49 5427.30,2044.68 5422.45,2043.24 5417.08,2044.55 5412.03,2042.67 5403.41,2038.98 5395.38,2037.01 5388.44,2034.22 5383.23,2030.85 5378.94,2031.77 5376.66,2035.01 5369.40,2036.33 5346.35,2037.25 5339.76,2037.03 5335.79,2034.34 5333.11,2031.92 5329.69,2032.22 5326.63,2034.45 5321.85,2037.05 5314.39,2037.22 5308.38,2038.51 5301.90,2041.01 5299.98,2047.36 5299.05,2056.04 5297.70,2064.28 5297.68,2071.08 5296.35,2078.69 5296.77,2085.29 5297.13,2093.58 5296.26,2100.14 5296.65,2109.80 5302.41,2119.90 5309.78,2122.49 5319.48,2119.42 5331.86,2118.57 5344.21,2118.99 5350.94,2115.39 5358.94,2118.57 5360.71,2122.74 5367.79,2127.66 5370.56,2133.69 5379.75,2135.02 5392.20,2130.18 5403.19,2126.74 5412.61,2125.57 5410.50,2118.12 5401.19,2120.24 5374.27,2117.86 5357.54,2112.43 5341.75,2105.46 5330.79,2096.85 5322.74,2087.40 5320.85,2079.09 5322.56,2066.18 5327.33,2057.97 5338.39,2050.78 5359.62,2048.66 5380.52,2053.07 5393.86,2064.33 5405.52,2077.09 5408.81,2083.21 5414.44,2084.19 5421.42,2086.13 5425.73,2091.92 5427.88,2102.71 5430.33,2112.15 5433.95,2118.43 5440.77,2118.45 5443.16,2114.78"/>
    <poly id="142411203#1" type="natural" color="140,196,107" fill="1" layer="-4.00" shape="5443.16,2114.78 5444.34,2107.52 5443.77,2099.22 5443.21,2090.49 5442.57,2084.30 5443.31,2068.82 5442.72,2055.20 5440.41,2047.89 5437.62,2046.36 5433.33,2049.14 5428.69,2047.49 5427.30,2044.68 5422.45,2043.24 5417.08,2044.55 5412.03,2042.67 5403.41,2038.98 5395.38,2037.01 5388.44,2034.22 5383.23,2030.85 5378.94,2031.77 5376.66,2035.01 5369.40,2036.33 5346.35,2037.25 5339.76,2037.03 5335.79,2034.34 5333.11,2031.92 5329.69,2032.22 5326.63,2034.45 5321.85,2037.05 5314.39,2037.22 5308.38,2038.51 5301.90,2041.01 5299.98,2047.36 5299.05,2056.04 5297.70,2064.28 5297.68,2071.08 5296.35,2078.69 5296.77,2085.29 5297.13,2093.58 5296.26,2100.14 5296.65,2109.80 5302.41,2119.90 5309.78,2122.49 5319.48,2119.42 5331.86,2118.57 5344.21,2118.99 5350.94,2115.39 5358.94,2118.57 5360.71,2122.74 5367.79,2127.66 5370.56,2133.69 5379.75,2135.02 5392.20,2130.18 5403.19,2126.74 5412.61,2125.57 5410.50,2118.12 5401.19,2120.24 5374.27,2117.86 5357.54,2112.43 5341.75,2105.46 5330.79,2096.85 5322.74,2087.40 5320.85,2079.09 5322.56,2066.18 5327.33,2057.97 5338.39,2050.78 5359.62,2048.66 5380.52,2053.07 5393.86,2064.33 5405.52,2077.09 5408.81,2083.21 5414.44,2084.19 5421.42,2086.13 5425.73,2091.92 5427.88,2102.71 5430.33,2112.15 5433.95,2118.43 5440.77,2118.45 5443.16,2114.78"/>
    <poly id="142411210" type="landuse" color="194,194,130" fill="1" layer="-3.00" shape="6044.46,3840.25 6029.07,3838.48 5956.71,3819.25 5943.73,3814.57 5926.43,3806.19 5912.52,3796.76 5897.15,3786.77 5883.81,3781.00 5846.62,3767.70 5824.80,3824.62 5815.25,3876.80 5841.01,3885.89 5822.51,3945.46 5858.14,3965.40 5884.73,3975.88 5916.31,3984.69 5903.34,4029.85 5923.72,4035.57 5897.20,4076.06 5887.48,4075.57 5824.07,4087.34 5774.43,4107.54 5776.46,4128.58 5763.84,4149.71 5753.48,4173.07 5737.76,4248.69 5728.51,4253.02 5715.60,4276.33 5717.31,4285.93 5725.17,4285.43 5725.71,4300.75 5710.26,4302.54 5712.54,4327.37 5738.99,4326.19 5738.82,4361.50 5723.78,4357.89 5719.20,4384.03 5722.31,4405.29 5738.18,4440.46 5678.89,4533.29 5690.69,4537.43 5781.84,4827.82 6004.37,4739.68 6000.54,4771.46 6010.24,4808.72 6165.85,4871.97 6210.53,4876.22 6222.81,4864.79 6238.97,4873.56 6248.19,4887.78 6260.86,4876.94 6284.39,4869.35 6321.69,4847.42 6338.78,4829.94 6360.05,4801.22 6377.76,4765.68 6390.36,4732.52 6401.30,4698.61 6411.97,4646.87 6419.69,4600.15 6294.50,4557.44 6283.89,4549.89 6272.20,4533.58 6273.96,4515.34 6301.41,4481.26 6331.36,4482.99 6333.11,4411.39 6385.80,4407.36 6384.58,4342.56 6362.34,4342.98 6341.13,4358.47 6328.53,4344.77 6287.71,4318.59 6188.69,4250.46 6129.60,4213.39 6131.47,4149.05 6138.41,4097.51 6141.88,3978.95 6141.36,3957.98 6076.34,3961.68 6074.49,3901.29 6047.91,3902.23 6044.46,3840.25"/>
    <poly id="142411211" type="forest" color="140,196,107" fill="1" layer="-3.00" shape="5043.98,2322.69 5067.46,2329.53 5090.91,2339.28 5120.25,2347.50 5149.00,2354.43 5152.52,2340.53 5119.77,2306.25 5080.20,2277.12 5071.84,2297.20 5050.92,2294.83 5043.98,2322.69"/>
    <poly id="142411214" type="forest" color="140,196,107" fill="1" layer="-3.00" shape="4766.23,4393.49 4881.56,4297.08 4861.80,4273.16 4870.45,4260.68 4869.97,4247.90 4745.50,4357.67 4752.46,4381.61 4766.23,4393.49"/>
    <poly id="142411215" type="landuse" color="194,194,130" fill="1" layer="-3.00" shape="4472.07,4192.43 4598.84,4040.02 4581.07,4011.04 4575.68,3979.26 4589.49,4010.68 4605.68,4029.29 4757.67,3915.13 4804.16,3860.61 4937.86,3714.24 4972.44,3667.68 4995.68,3649.76 5107.59,3540.92 5177.21,3484.45 5129.81,3412.15 5170.60,3365.65 5152.73,3346.76 5108.82,3315.36 5043.57,3316.47 5032.71,3312.65 4986.99,3313.90 4968.66,3273.40 4985.78,3270.51 4972.92,3191.14 4977.72,3151.74 4996.59,3116.76 4958.72,3099.91 4878.79,3045.74 4821.87,2989.07 4765.91,2941.50 4739.49,2921.91 4704.22,2903.17 4631.37,2874.81 4553.66,2854.51 4194.82,2726.98 4160.39,2883.03 4187.31,2880.56 4218.89,2917.59 4200.38,2967.44 4216.26,2989.10 4169.65,3095.62 4145.12,3144.51 4127.29,3223.25 3973.52,3246.10 3933.32,3421.15 3914.73,3406.66 3889.83,3406.46 3834.45,3483.36 3736.25,3575.50 3560.23,3692.73 3704.09,3868.55 3817.28,3760.63 3861.41,3801.58 3923.60,3747.81 3882.27,3698.54 3995.86,3586.08 3995.84,3606.83 4047.22,3635.93 4132.80,3652.78 4110.21,3676.37 4117.98,3704.53 4138.49,3735.06 4111.69,3795.18 4150.71,3808.29 4211.42,3828.67 4188.96,3886.46 4310.06,3902.12 4276.22,3966.78 4355.56,4058.35 4370.05,4039.53 4349.43,4015.41 4348.13,3993.25 4359.72,3981.78 4403.49,3979.39 4410.32,3993.53 4406.77,4010.74 4358.46,4062.92 4472.07,4192.43"/>
    <poly id="142411216" type="landuse" color="194,194,130" fill="1" layer="-3.00" shape="5042.07,5304.31 5101.37,5241.57 5166.97,5128.01 5209.20,5096.61 5778.92,4869.52 5760.41,4824.39 5723.02,4839.88 5725.23,4850.91 5554.15,4917.95 5527.88,4832.15 5746.96,4751.16 5683.83,4551.11 5673.61,4535.48 5652.76,4516.53 5632.00,4515.78 5578.92,4496.42 5439.62,4477.52 5445.42,4501.67 5434.52,4506.30 5327.56,4497.87 5296.13,4487.68 5287.69,4467.38 5303.24,4480.68 5320.81,4488.57 5433.53,4495.61 5427.64,4473.98 5350.45,4444.22 5256.76,4395.19 5235.87,4412.58 5216.22,4398.69 5042.87,4546.92 5058.07,4570.69 4918.11,4692.23 4886.38,4683.87 4864.33,4704.89 4883.65,4768.93 4918.63,4816.18 4948.85,4788.02 4954.31,4775.44 4988.33,4743.31 4987.77,4732.80 5031.96,4697.37 5043.24,4701.86 5067.71,4681.71 5091.19,4703.94 5053.74,4742.79 4996.22,4753.15 4990.27,4780.30 4974.74,4793.01 4949.97,4795.36 4921.19,4821.27 4907.36,4821.71 4873.43,4770.40 4843.41,4671.35 4634.60,4854.39 4654.17,4877.62 4706.31,4836.99 4720.15,4866.87 4690.72,4918.99 4737.37,4965.72 4751.10,4952.04 4757.12,4956.81 4744.96,4971.22 4755.05,4983.87 4817.62,4932.43 4823.09,4939.45 4762.12,4991.19 4772.17,5004.97 4858.14,4937.68 4859.68,4939.56 4781.52,5012.13 5042.07,5304.31"/>
    <poly id="162916475" type="water" color="181,209,209" fill="0" layer="-4.00" shape="4113.58,3012.30 4072.75,3032.22 3989.52,3030.98 3948.77,3009.29 3845.30,3011.75 3759.75,3014.82 3676.03,3076.39"/>
    <poly id="163064249" type="building" color="255,230,230" fill="1" layer="-1.00" shape="4537.83,2681.26 4550.73,2684.74 4553.57,2674.25 4540.67,2670.76 4537.83,2681.26"/>
    <poly id="164183230" type="building" color="255,230,230" fill="1" layer="-1.00" shape="5557.99,1736.67 5561.76,1715.63 5572.16,1717.49 5568.39,1738.52 5557.99,1736.67"/>
    <poly id="164183231" type="building" color="255,230,230" fill="1" layer="-1.00" shape="5630.59,1737.92 5629.03,1732.75 5632.02,1731.86 5633.57,1737.02 5630.59,1737.92"/>
    <poly id="164183232" type="building" color="255,230,230" fill="1" layer="-1.00" shape="5620.08,1834.76 5627.69,1836.08 5625.40,1849.23 5617.79,1847.91 5620.08,1834.76"/>
    <poly id="164183233" type="building" color="255,230,230" fill="1" layer="-1.00" shape="5589.42,1713.21 5582.29,1708.99 5586.74,1701.50 5593.87,1705.72 5589.42,1713.21"/>
    <poly id="164183234" type="building" color="255,230,230" fill="1" layer="-1.00" shape="5530.07,1805.23 5543.13,1802.38 5545.14,1811.54 5532.08,1814.39 5530.07,1805.23"/>
    <poly id="164183235" type="building" color="255,230,230" fill="1" layer="-1.00" shape="5633.04,1755.83 5638.21,1753.25 5635.70,1748.27 5630.54,1750.85 5633.04,1755.83"/>
    <poly id="164183237" type="building" color="255,230,230" fill="1" layer="-1.00" shape="5523.20,1757.89 5531.19,1709.04 5554.28,1712.70 5545.34,1761.83 5523.20,1757.89"/>
    <poly id="164183238" type="building" color="255,230,230" fill="1" layer="-1.00" shape="5516.53,1805.53 5514.87,1798.79 5541.62,1792.23 5543.29,1798.96 5516.53,1805.53"/>
    <poly id="164183239" type="building" color="255,230,230" fill="1" layer="-1.00" shape="5608.60,1724.84 5613.73,1722.35 5611.97,1718.74 5606.83,1721.22 5608.60,1724.84"/>
    <poly id="164183240" type="building" color="255,230,230" fill="1" layer="-1.00" shape="5626.01,1759.16 5622.29,1751.61 5627.82,1748.91 5631.53,1756.46 5626.01,1759.16"/>
    <poly id="164183241" type="building" color="255,230,230" fill="1" layer="-1.00" shape="5563.20,1804.02 5592.06,1810.42 5595.85,1793.42 5566.99,1787.03 5566.25,1790.34 5563.20,1804.02"/>
    <poly id="164183242" type="building" color="255,230,230" fill="1" layer="-1.00" shape="5566.61,1689.60 5558.36,1703.47 5578.49,1715.37 5582.29,1708.99 5586.74,1701.50 5566.61,1689.60"/>
    <poly id="164183243" type="building" color="255,230,230" fill="1" layer="-1.00" shape="5575.72,1755.21 5594.46,1756.76 5594.71,1753.77 5598.81,1754.11 5599.67,1743.71 5576.83,1741.82 5575.72,1755.21"/>
    <poly id="164183244" type="building" color="255,230,230" fill="1" layer="-1.00" shape="5550.68,1786.89 5558.79,1750.46 5554.42,1749.50 5556.17,1741.65 5576.11,1746.07 5566.99,1787.03 5566.25,1790.34 5550.68,1786.89"/>
    <poly id="164183245" type="building" color="255,230,230" fill="1" layer="-1.00" shape="5604.13,1756.21 5619.38,1759.59 5610.80,1798.14 5607.40,1797.39 5606.49,1801.49 5599.17,1799.88 5600.39,1794.42 5595.85,1793.42 5604.13,1756.21"/>
    <poly id="169707479" type="building" color="255,230,230" fill="0" layer="-1.00" shape="26568.93,-18281.89 26513.72,-18002.14 26371.58,-17396.75 26240.45,-17159.37 25766.33,-16385.87 25697.03,-16272.02 25613.04,-16077.93 25491.05,-15797.96 25199.16,-15270.59 24891.28,-14636.63 24789.65,-14409.37 24496.13,-14096.96 22926.03,-12796.18 22567.43,-12091.70 22216.52,-11757.07 22123.27,-11662.34 22076.53,-11576.86 21903.23,-11447.90 21796.94,-11370.51 21605.39,-11206.28 21409.00,-11013.48 20537.57,-10283.31 20255.46,-10026.98 20031.22,-9761.64 19907.51,-9606.37 19940.34,-9303.20 19895.90,-9181.16 19761.45,-8809.41 19720.19,-8505.62 19640.79,-8323.90 19464.80,-8159.73 19436.33,-7940.52 19349.25,-7824.30 19093.22,-7173.94 19046.06,-6976.28 18999.64,-6725.06 18970.57,-6570.88 18942.52,-6321.38 18914.03,-6085.57 18813.26,-6010.85 18502.89,-5766.95 18308.19,-5636.04 18259.98,-5609.64 17730.64,-5430.00 17660.87,-5359.87 17511.19,-5196.88 17426.82,-5048.82 17095.02,-4740.06 17009.61,-4568.81 16952.16,-4418.08 16764.76,-4228.26 16699.72,-4177.60 16470.02,-3892.28 16380.38,-3803.66 16049.87,-3441.63 15814.35,-3342.32 15734.44,-3259.74 15665.09,-3201.58 15588.44,-3139.13 15478.44,-3054.74 15410.58,-2927.67 15311.35,-2738.11 15194.62,-2591.02 15031.92,-2367.78 15011.19,-2358.50 14870.11,-2160.30 14451.21,-1526.58 13995.44,-1435.41 13871.77,-1323.64 13851.92,-1305.69 13767.21,-1235.93 13548.34,-1089.75 13455.39,-1022.11 13332.85,-974.79 13130.72,-897.08 12968.47,-720.85 12919.58,-665.12 12860.56,-579.99 12737.54,-486.41 12697.99,-451.17 12676.47,-380.18 12658.03,-331.90 12605.65,-270.34 12483.65,-172.17 12428.32,-113.11 12354.92,-76.95 11834.60,302.23 11751.37,370.81 10874.13,1386.76 10823.95,1460.15 10804.58,1584.34 10743.34,1637.40 10598.92,1748.70 10507.79,1860.77 10359.31,1986.95 9706.87,2777.82 9510.73,3029.74 9258.24,3344.37 9175.44,3416.42 8953.80,3581.66 8528.00,3777.23 8132.39,3958.89 7942.46,4082.62 7785.19,4362.50 7568.59,4712.71 7321.71,5023.86 6906.00,5696.35 6895.92,5711.88 6686.89,6053.01 6558.75,6386.33 6430.73,6547.78 6271.41,6816.42 6183.29,6991.03 6123.85,7179.39 6023.94,7507.22 5747.98,8422.97 5674.87,8720.66 5565.50,8894.01 5539.16,8932.27 5277.13,9357.42 5222.20,9509.83 5119.90,9735.81 5030.67,9927.25 4834.14,10506.20 4644.38,11076.34 4572.10,11285.77 4556.98,11389.60 4527.71,11648.24 4526.02,11669.52 4518.90,11727.18 4459.42,11795.64 4381.05,11888.96 4296.49,12136.34 4214.99,12426.15 4282.07,12540.92 4324.64,12776.25 4492.06,12956.65 4496.11,12982.35 4459.48,13241.30 4350.87,13522.08 4217.18,13829.94 4182.51,13903.75 4062.30,14053.65 4027.38,14081.04 3765.02,14213.71 3522.92,14343.60 3250.98,14484.00 3132.58,14552.61 2795.72,14728.63 2230.27,15021.39 2135.19,15071.07 1619.84,15335.06 1419.15,15400.36 912.27,15490.67 509.88,15607.25 127.24,15722.92 38.82,15752.80 -289.21,15844.43 -671.15,15905.56 -862.82,15940.12 -1176.53,16122.51"/>
    <poly id="171660146" type="water" color="181,209,209" fill="0" layer="-4.00" shape="5803.61,2906.53 5801.85,2902.61 5794.75,2892.95 5789.06,2885.50"/>
    <poly id="171660148" type="water" color="181,209,209" fill="0" layer="-4.00" shape="5800.18,2913.27 5803.61,2906.53"/>
    <poly id="182258017" type="building" color="255,230,230" fill="1" layer="-1.00" shape="6494.97,3536.60 6457.17,3539.65 6457.94,3560.33 6495.70,3558.57 6494.97,3536.60"/>
    <poly id="182258018" type="building" color="255,230,230" fill="1" layer="-1.00" shape="6551.29,3693.55 6545.33,3679.81 6542.10,3672.05 6531.82,3676.42 6542.27,3700.87 6559.56,3700.58 6559.44,3693.42 6551.29,3693.55"/>
    <poly id="182258019" type="building" color="255,230,230" fill="1" layer="-1.00" shape="6413.27,3540.63 6430.23,3544.42 6431.73,3523.49 6426.06,3523.37 6424.78,3528.50 6416.35,3526.98 6414.88,3534.18 6413.27,3540.63"/>
    <poly id="182258020" type="building" color="255,230,230" fill="1" layer="-1.00" shape="6446.10,3563.68 6446.19,3562.04 6447.28,3540.83 6432.38,3540.07 6431.27,3561.64 6430.68,3573.18 6472.55,3594.85 6479.72,3581.07 6446.10,3563.68"/>
    <poly id="182258021" type="building" color="255,230,230" fill="1" layer="-1.00" shape="6352.66,3646.21 6350.62,3644.83 6347.17,3649.88 6349.11,3651.19 6347.37,3653.74 6356.76,3660.12 6363.45,3650.33 6354.15,3644.02 6352.66,3646.21"/>
    <poly id="182258022" type="building" color="255,230,230" fill="1" layer="-1.00" shape="6341.34,3663.55 6339.30,3662.16 6335.85,3667.23 6337.79,3668.54 6336.05,3671.09 6345.44,3677.46 6352.13,3667.68 6342.84,3661.36 6341.34,3663.55"/>
    <poly id="182258026" type="building" color="255,230,230" fill="1" layer="-1.00" shape="6159.71,3524.43 6155.57,3547.08 6165.84,3548.96 6168.33,3535.40 6178.27,3537.21 6175.77,3550.88 6186.02,3552.74 6190.19,3529.98 6159.71,3524.43"/>
    <poly id="182258027" type="building" color="255,230,230" fill="1" layer="-1.00" shape="6329.56,3681.27 6327.52,3679.89 6324.06,3684.94 6326.00,3686.27 6324.26,3688.80 6333.65,3695.19 6340.34,3685.39 6331.05,3679.08 6329.56,3681.27"/>
    <poly id="183474428" type="building" color="255,230,230" fill="1" layer="-1.00" shape="7070.64,1914.56 7074.13,1924.22 7083.38,1920.90 7079.88,1911.24 7070.64,1914.56"/>
    <poly id="183474429" type="building" color="255,230,230" fill="1" layer="-1.00" shape="7234.79,1857.72 7204.29,1872.88 7205.89,1876.10 7236.40,1860.93 7234.79,1857.72"/>
    <poly id="183474430" type="building" color="255,230,230" fill="1" layer="-1.00" shape="7081.77,1910.81 7085.94,1920.37 7096.13,1915.95 7091.97,1906.40 7081.77,1910.81"/>
    <poly id="183474431" type="building" color="255,230,230" fill="1" layer="-1.00" shape="7248.98,1867.11 7209.74,1881.18 7214.98,1895.70 7254.22,1881.63 7248.98,1867.11"/>
    <poly id="183474432" type="building" color="255,230,230" fill="1" layer="-1.00" shape="7081.34,1946.58 7087.52,1944.76 7085.24,1937.04 7079.05,1938.87 7081.34,1946.58"/>
    <poly id="183474433" type="building" color="255,230,230" fill="1" layer="-1.00" shape="7192.42,1828.26 7211.92,1817.96 7205.37,1805.65 7185.87,1815.95 7192.42,1828.26"/>
    <poly id="183474434" type="building" color="255,230,230" fill="1" layer="-1.00" shape="7054.74,1885.08 7057.80,1895.40 7077.14,1889.70 7074.08,1879.38 7054.74,1885.08"/>
    <poly id="183474435" type="building" color="255,230,230" fill="1" layer="-1.00" shape="7200.78,1840.32 7209.30,1835.76 7203.45,1824.90 7194.93,1829.46 7200.78,1840.32"/>
    <poly id="183474436" type="building" color="255,230,230" fill="1" layer="-1.00" shape="7053.14,1885.34 7045.58,1859.48 7039.00,1861.39 7046.56,1887.25 7053.14,1885.34"/>
    <poly id="183474437" type="building" color="255,230,230" fill="1" layer="-1.00" shape="7096.55,2045.06 7088.62,2065.71 7103.94,2071.56 7111.87,2050.91 7096.55,2045.06"/>
    <poly id="183474438" type="building" color="255,230,230" fill="1" layer="-1.00" shape="7053.07,1864.19 7070.21,1857.30 7064.73,1843.72 7047.58,1850.61 7053.07,1864.19"/>
    <poly id="183474439" type="building" color="255,230,230" fill="1" layer="-1.00" shape="7041.32,1844.07 7057.63,1838.11 7054.90,1830.67 7038.58,1836.63 7041.32,1844.07"/>
    <poly id="183474441" type="building" color="255,230,230" fill="1" layer="-1.00" shape="6936.17,1874.59 6945.68,1876.96 6948.60,1865.26 6939.09,1862.90 6936.17,1874.59"/>
    <poly id="183474442" type="building" color="255,230,230" fill="1" layer="-1.00" shape="7137.04,1917.64 7139.15,1923.22 7159.67,1915.50 7157.56,1909.92 7137.04,1917.64"/>
    <poly id="183474443" type="building" color="255,230,230" fill="1" layer="-1.00" shape="6903.21,1954.03 6902.09,1962.05 6919.93,1964.55 6921.06,1956.52 6903.21,1954.03"/>
    <poly id="183474444" type="building" color="255,230,230" fill="1" layer="-1.00" shape="7146.58,1912.49 7158.36,1907.95 7152.68,1892.01 7140.69,1896.21 7146.58,1912.49"/>
    <poly id="183474446" type="building" color="255,230,230" fill="1" layer="-1.00" shape="6931.33,1966.74 6940.57,1968.53 6943.28,1954.63 6934.04,1952.84 6931.33,1966.74"/>
    <poly id="183474447" type="building" color="255,230,230" fill="1" layer="-1.00" shape="7187.45,1879.93 7194.72,1896.09 7204.46,1891.74 7197.21,1875.59 7187.45,1879.93"/>
    <poly id="183474448" type="building" color="255,230,230" fill="1" layer="-1.00" shape="6905.44,1946.45 6912.85,1947.31 6914.21,1935.75 6906.80,1934.89 6905.44,1946.45"/>
    <poly id="183474449" type="building" color="255,230,230" fill="1" layer="-1.00" shape="7186.72,1891.99 7177.27,1897.88 7179.40,1901.28 7188.85,1895.41 7186.72,1891.99"/>
    <poly id="183474450" type="building" color="255,230,230" fill="1" layer="-1.00" shape="6795.36,1975.43 6795.05,1984.48 6815.28,1985.18 6815.59,1976.12 6795.36,1975.43"/>
    <poly id="183474451" type="building" color="255,230,230" fill="1" layer="-1.00" shape="7150.62,1865.79 7158.94,1862.18 7155.83,1855.08 7147.51,1858.69 7150.62,1865.79"/>
    <poly id="183474452" type="building" color="255,230,230" fill="1" layer="-1.00" shape="7038.43,1965.46 7047.05,1961.75 7036.55,1937.53 7027.94,1941.24 7038.43,1965.46"/>
    <poly id="183474453" type="building" color="255,230,230" fill="1" layer="-1.00" shape="7166.45,1873.97 7172.34,1871.80 7168.40,1861.16 7162.51,1863.33 7166.45,1873.97"/>
    <poly id="183474454" type="building" color="255,230,230" fill="1" layer="-1.00" shape="7177.33,1868.14 7194.19,1860.45 7187.93,1846.81 7171.07,1854.50 7177.33,1868.14"/>
    <poly id="183474455" type="building" color="255,230,230" fill="1" layer="-1.00" shape="7213.50,1827.41 7224.39,1849.40 7234.38,1844.49 7223.49,1822.49 7213.50,1827.41"/>
    <poly id="184057872" type="building" color="255,230,230" fill="1" layer="-1.00" shape="5317.01,2494.13 5328.50,2495.57 5325.64,2510.39 5336.94,2517.58 5345.32,2502.68 5357.93,2509.92 5349.28,2525.06 5341.84,2520.09 5336.29,2528.80 5313.74,2513.13 5317.01,2494.13"/>
    <poly id="184057874" type="building" color="255,230,230" fill="1" layer="-1.00" shape="5317.28,2566.35 5323.99,2552.04 5334.01,2556.71 5340.92,2541.98 5348.35,2545.45 5345.54,2551.44 5359.81,2558.10 5354.45,2569.51 5343.27,2564.30 5339.39,2572.56 5337.82,2575.92 5317.28,2566.35"/>
    <poly id="184057875" type="building" color="255,230,230" fill="1" layer="-1.00" shape="5250.88,2324.68 5254.32,2313.85 5257.32,2314.80 5265.49,2289.07 5275.26,2292.16 5276.95,2286.86 5308.17,2296.73 5305.90,2303.85 5291.15,2299.19 5288.18,2308.54 5276.51,2304.84 5272.32,2318.02 5287.11,2322.70 5283.23,2334.91 5250.88,2324.68"/>
    <poly id="184057876" type="building" color="255,230,230" fill="1" layer="-1.00" shape="5439.91,2538.92 5435.19,2535.10 5440.65,2528.77 5442.39,2526.73 5445.80,2529.65 5442.22,2533.83 5443.42,2534.85 5439.91,2538.92"/>
    <poly id="184057877" type="building" color="255,230,230" fill="1" layer="-1.00" shape="5348.70,2380.21 5351.11,2370.71 5360.93,2373.20 5358.52,2382.69 5348.70,2380.21"/>
    <poly id="184057878" type="building" color="255,230,230" fill="1" layer="-1.00" shape="5340.95,2436.82 5347.99,2424.22 5369.82,2436.34 5362.78,2448.94 5340.95,2436.82"/>