<?xml version="1.0" encoding="UTF-8"?>

<!-- generated on 12/16/17 13:37:10 by SUMO duarouter Version 0.31.0
<?xml version="1.0" encoding="UTF-8"?>

<configuration xmlns:xsi="http://www.w3.org/2001/XMLSchema-instance" xsi:noNamespaceSchemaLocation="http://sumo.dlr.de/xsd/duarouterConfiguration.xsd">

    <input>
        <net-file value="AmpelDemo2.net.xml"/>
        <route-files value="AmpelDemo2.trips.xml"/>
    </input>

    <output>
        <output-file value="AmpelDemo2.rou.xml"/>
    </output>

    <processing>
        <ignore-errors value="true"/>
    </processing>

    <time>
        <begin value="0"/>
        <end value="18000.0"/>
    </time>

    <report>
        <no-warnings value="true"/>
        <no-step-log value="true"/>
    </report>

</configuration>
-->

<routes xmlns:xsi="http://www.w3.org/2001/XMLSchema-instance" xsi:noNamespaceSchemaLocation="http://sumo.dlr.de/xsd/routes_file.xsd">
    <vType id="passenger" speedFactor="normc(1.00,0.10,0.20,2.00)" vClass="passenger"/>
    <vehicle id="veh0" type="passenger" depart="0.00">
        <route edges="-gneE17 gneE48 -gneE52"/>
    </vehicle>
    <vehicle id="veh1" type="passenger" depart="4.00">
        <route edges="gneE31 gneE32 gneE34 gneE35 gneE23 gneE24 -gneE55 -gneE48 gneE16 gneE20 gneE22"/>
    </vehicle>
    <vehicle id="veh2" type="passenger" depart="8.00">
        <route edges="gneE23 gneE24 -gneE55 -gneE48 gneE16 gneE20 gneE22 -gneE35 -gneE34 -gneE32 -gneE31 -gneE51"/>
    </vehicle>
    <vehicle id="veh3" type="passenger" depart="12.00">
        <route edges="gneE34 gneE35 -gneE22 -gneE20 -gneE16 gneE17 gneE18 gneE19 -gneE10 gneE11"/>
    </vehicle>
    <vehicle id="veh4" type="passenger" depart="16.00">
        <route edges="-gneE14 -gneE13 -gneE12 -gneE11 gneE10 -gneE19 -gneE18 -gneE17 gneE48 -gneE52"/>
    </vehicle>
    <vehicle id="veh5" type="passenger" depart="20.00">
        <route edges="-gneE12 -gneE11 gneE10 gneE50 gneE51"/>
    </vehicle>
    <vehicle id="veh6" type="passenger" depart="24.00">
        <route edges="-gneE34 -gneE32 -gneE31 -gneE51 gneE49 -gneE16 gneE17 gneE18 gneE19 gneE50 gneE51 gneE31"/>
    </vehicle>
    <vehicle id="veh7" type="passenger" depart="28.00">
        <route edges="-gneE22 -gneE20 -gneE49 -gneE50 -gneE19"/>
    </vehicle>
    <vehicle id="veh8" type="passenger" depart="32.00">
        <route edges="-gneE20 -gneE16 -gneE15 -gneE43"/>
    </vehicle>
    <vehicle id="veh9" type="passenger" depart="36.00">
        <route edges="gneE16 -gneE49 -gneE50 -gneE10 gneE11 -gneE46 gneE54"/>
    </vehicle>
    <vehicle id="veh10" type="passenger" depart="40.00">
        <route edges="-gneE22 -gneE20 -gneE16 -gneE15 -gneE43 gneE52"/>
    </vehicle>
    <vehicle id="veh11" type="passenger" depart="44.00">
        <route edges="gneE12 gneE13 gneE14 gneE15 gneE17 gneE18 gneE19 gneE50 gneE49"/>
    </vehicle>
    <vehicle id="veh12" type="passenger" depart="48.00">
        <route edges="gneE35 -gneE22 -gneE20 -gneE49 -gneE50 -gneE19 -gneE18"/>
    </vehicle>
    <vehicle id="veh13" type="passenger" depart="52.00">
        <route edges="gneE18 gneE19 gneE50 gneE49 -gneE16"/>
    </vehicle>
    <vehicle id="veh14" type="passenger" depart="56.00">
        <route edges="-gneE10 gneE11 gneE12 gneE13 gneE14 gneE15 gneE16 -gneE49"/>
    </vehicle>
    <vehicle id="veh15" type="passenger" depart="60.00">
        <route edges="gneE31 gneE32 gneE34 gneE35 -gneE22 -gneE20 -gneE16 gneE17 gneE18 gneE19 -gneE10 gneE11 gneE12 gneE13"/>
    </vehicle>
    <vehicle id="veh16" type="passenger" depart="64.00">
        <route edges="-gneE20 -gneE16 gneE48 -gneE52 gneE43"/>
    </vehicle>
    <vehicle id="veh17" type="passenger" depart="68.00">
        <route edges="gneE50 gneE49 -gneE16 gneE48 gneE55 -gneE24 -gneE23"/>
    </vehicle>
    <vehicle id="veh18" type="passenger" depart="72.00">
        <route edges="-gneE52 gneE43 gneE15 gneE17"/>
    </vehicle>
    <vehicle id="veh19" type="passenger" depart="76.00">
        <route edges="gneE49 -gneE16"/>
    </vehicle>
    <vehicle id="veh20" type="passenger" depart="80.00">
        <route edges="gneE12 gneE13 gneE14 -gneE43 gneE52 -gneE48 -gneE15 -gneE14 -gneE13 -gneE12 -gneE46 gneE54"/>
    </vehicle>
    <vehicle id="veh21" type="passenger" depart="84.00">
        <route edges="gneE15 gneE16 gneE20 gneE22"/>
    </vehicle>
    <vehicle id="veh22" type="passenger" depart="88.00">
        <route edges="gneE31 gneE32 gneE34 gneE35 -gneE22 -gneE20 -gneE16 -gneE15 -gneE14 -gneE13 -gneE12 -gneE11 gneE10"/>
    </vehicle>
    <vehicle id="veh23" type="passenger" depart="92.00">
        <route edges="-gneE32 -gneE31 -gneE51 -gneE50 -gneE10 gneE11 gneE12 gneE13 gneE14"/>
    </vehicle>
    <vehicle id="veh24" type="passenger" depart="96.00">
        <route edges="gneE11 gneE12 gneE13 gneE14 -gneE43"/>
    </vehicle>
    <vehicle id="veh25" type="passenger" depart="100.00">
        <route edges="-gneE55 -gneE48 gneE16 -gneE49 gneE51 gneE31"/>
    </vehicle>
    <vehicle id="veh26" type="passenger" depart="104.00">
        <route edges="gneE34 gneE35 -gneE22 -gneE20 -gneE16 gneE17 gneE18 gneE19 gneE50 gneE49"/>
    </vehicle>
    <vehicle id="veh27" type="passenger" depart="108.00">
        <route edges="gneE18 gneE19 gneE50 gneE49 -gneE16 gneE48 gneE55 -gneE24"/>
    </vehicle>
    <vehicle id="veh28" type="passenger" depart="112.00">
        <route edges="gneE43 gneE15 gneE17 gneE18 gneE19 gneE50"/>
    </vehicle>
    <vehicle id="veh29" type="passenger" depart="116.00">
        <route edges="gneE22 gneE23 gneE24 -gneE55 -gneE48 gneE16 -gneE49 gneE51 gneE31"/>
    </vehicle>
    <vehicle id="veh30" type="passenger" depart="120.00">
        <route edges="gneE10 -gneE19 -gneE18 -gneE17 gneE16 gneE20 gneE22 gneE23 gneE24 -gneE55"/>
    </vehicle>
    <vehicle id="veh31" type="passenger" depart="124.00">
        <route edges="gneE14 gneE15 gneE16 -gneE49 -gneE50 -gneE19 -gneE18 -gneE17"/>
    </vehicle>
    <vehicle id="veh32" type="passenger" depart="128.00">
        <route edges="gneE19 -gneE10 gneE11 gneE12 gneE13 gneE14 -gneE43 -gneE54 gneE46"/>
    </vehicle>
    <vehicle id="veh33" type="passenger" depart="132.00">
        <route edges="-gneE18 -gneE17 gneE16 gneE20 gneE22 gneE23 gneE24"/>
    </vehicle>
    <vehicle id="veh34" type="passenger" depart="136.00">
        <route edges="gneE22 -gneE35 -gneE34 -gneE32 -gneE31 -gneE51 gneE49 -gneE16"/>
    </vehicle>
    <vehicle id="veh35" type="passenger" depart="140.00">
        <route edges="-gneE12 -gneE46 gneE54 gneE43 gneE15"/>
    </vehicle>
    <vehicle id="veh36" type="passenger" depart="144.00">
        <route edges="-gneE22 -gneE20 -gneE16 gneE48 gneE55 -gneE24 -gneE23 -gneE35 -gneE34"/>
    </vehicle>
    <vehicle id="veh37" type="passenger" depart="148.00">
        <route edges="gneE16 gneE20 gneE22 gneE23 gneE24 -gneE55 -gneE48 gneE17 gneE18"/>
    </vehicle>
    <vehicle id="veh38" type="passenger" depart="152.00">
        <route edges="gneE24 -gneE55 -gneE52 -gneE54 gneE46 gneE12 gneE13"/>
    </vehicle>
    <vehicle id="veh39" type="passenger" depart="156.00">
        <route edges="-gneE43 gneE52 -gneE48 gneE17 gneE18 gneE19 -gneE10"/>
    </vehicle>
    <vehicle id="veh40" type="passenger" depart="160.00">
        <route edges="gneE11 gneE12 gneE13 gneE14 gneE15 gneE16 gneE20 gneE22"/>
    </vehicle>
    <vehicle id="veh41" type="passenger" depart="164.00">
        <route edges="-gneE22 -gneE20 -gneE49"/>
    </vehicle>
    <vehicle id="veh42" type="passenger" depart="168.00">
        <route edges="gneE22 gneE23 gneE24 -gneE55 -gneE48 gneE16"/>
    </vehicle>
    <vehicle id="veh43" type="passenger" depart="172.00">
        <route edges="gneE18 gneE19 -gneE10 gneE11 gneE12 gneE13 gneE14 -gneE43 -gneE54"/>
    </vehicle>
    <vehicle id="veh44" type="passenger" depart="176.00">
        <route edges="gneE12 gneE13 gneE14 gneE15 gneE16 gneE20"/>
    </vehicle>
    <vehicle id="veh45" type="passenger" depart="180.00">
        <route edges="-gneE18 -gneE17 gneE16 -gneE49 gneE51 gneE31 gneE32 gneE34"/>
    </vehicle>
    <vehicle id="veh46" type="passenger" depart="184.00">
        <route edges="gneE48 -gneE52 gneE43 -gneE14 -gneE13 -gneE12"/>
    </vehicle>
    <vehicle id="veh47" type="passenger" depart="188.00">
        <route edges="-gneE20 -gneE16 gneE48 gneE55 -gneE24"/>
    </vehicle>
    <vehicle id="veh48" type="passenger" depart="192.00">
        <route edges="-gneE13 -gneE12 -gneE46 gneE54 gneE52"/>
    </vehicle>
    <vehicle id="veh49" type="passenger" depart="196.00">
        <route edges="-gneE49 -gneE50 -gneE10 gneE11 gneE12"/>
    </vehicle>
    <vehicle id="veh50" type="passenger" depart="200.00">
        <route edges="-gneE52 gneE43 gneE15 gneE48 gneE55 -gneE24 -gneE23 -gneE22 -gneE20"/>
    </vehicle>
    <vehicle id="veh51" type="passenger" depart="204.00">
        <route edges="gneE14 -gneE43 gneE52 gneE55 -gneE24"/>
    </vehicle>
    <vehicle id="veh52" type="passenger" depart="208.00">
        <route edges="-gneE17 gneE48 gneE55 -gneE24 -gneE23 -gneE22"/>
    </vehicle>
    <vehicle id="veh53" type="passenger" depart="212.00">
        <route edges="-gneE50 -gneE19 -gneE18 -gneE17 gneE16 -gneE49 gneE51"/>
    </vehicle>
    <vehicle id="veh54" type="passenger" depart="216.00">
        <route edges="gneE15 gneE48 -gneE52 gneE43 -gneE14 -gneE13 -gneE12 -gneE46 gneE54"/>
    </vehicle>
    <vehicle id="veh55" type="passenger" depart="220.00">
        <route edges="-gneE49 -gneE50 -gneE19 -gneE18 -gneE17 gneE16 gneE20 gneE22 -gneE35 -gneE34 -gneE32 -gneE31"/>
    </vehicle>
    <vehicle id="veh56" type="passenger" depart="224.00">
        <route edges="gneE22 gneE23 gneE24 -gneE55 -gneE48 gneE16 -gneE49 gneE51 gneE31 gneE32 gneE34 gneE35 -gneE22 -gneE20"/>
    </vehicle>
    <vehicle id="veh57" type="passenger" depart="228.00">
        <route edges="gneE55 -gneE24 -gneE23 -gneE22 -gneE20 -gneE49"/>
    </vehicle>
    <vehicle id="veh58" type="passenger" depart="232.00">
        <route edges="-gneE31"/>
    </vehicle>
    <vehicle id="veh59" type="passenger" depart="236.00">
        <route edges="-gneE34 -gneE32 -gneE31 -gneE51 gneE49 -gneE16 gneE17 gneE18 gneE19 gneE50 gneE51"/>
    </vehicle>
    <vehicle id="veh60" type="passenger" depart="240.00">
        <route edges="gneE55 -gneE24 -gneE23 -gneE22 -gneE20 -gneE16 gneE17 gneE18 gneE19 -gneE10 gneE11 gneE12 gneE13"/>
    </vehicle>
    <vehicle id="veh61" type="passenger" depart="244.00">
        <route edges="-gneE23 -gneE22 -gneE20 -gneE16 gneE17 gneE18 gneE19 -gneE10"/>
    </vehicle>
    <vehicle id="veh62" type="passenger" depart="248.00">
        <route edges="-gneE14 -gneE13 -gneE12 -gneE11 gneE10 -gneE19 -gneE18 -gneE17 gneE16 gneE20 gneE22 -gneE35 -gneE34"/>
    </vehicle>
    <vehicle id="veh63" type="passenger" depart="252.00">
        <route edges="gneE17 gneE18 gneE19 -gneE10 gneE11 gneE12 gneE13 gneE14 gneE15 gneE16"/>
    </vehicle>
    <vehicle id="veh64" type="passenger" depart="256.00">
        <route edges="gneE46 -gneE11 gneE10 gneE50 gneE51 gneE31 gneE32 gneE34 gneE35"/>
    </vehicle>
    <vehicle id="veh65" type="passenger" depart="260.00">
        <route edges="-gneE46 gneE54 gneE52 -gneE48 gneE17 gneE18 gneE19"/>
    </vehicle>
    <vehicle id="veh66" type="passenger" depart="264.00">
        <route edges="-gneE51 gneE49 gneE20 gneE22 gneE23"/>
    </vehicle>
    <vehicle id="veh67" type="passenger" depart="268.00">
        <route edges="-gneE19 -gneE18 -gneE17 -gneE15 -gneE14 -gneE13 -gneE12 -gneE46 gneE54"/>
    </vehicle>
    <vehicle id="veh68" type="passenger" depart="272.00">
        <route edges="-gneE11 gneE10 -gneE19 -gneE18 -gneE17 gneE16"/>
    </vehicle>
    <vehicle id="veh69" type="passenger" depart="276.00">
        <route edges="-gneE46 gneE54 gneE52 -gneE48 gneE16 -gneE49 gneE51 gneE31 gneE32 gneE34"/>
    </vehicle>
    <vehicle id="veh70" type="passenger" depart="280.00">
        <route edges="-gneE17 gneE16 gneE20 gneE22 -gneE35 -gneE34 -gneE32 -gneE31 -gneE51 gneE49"/>
    </vehicle>
    <vehicle id="veh71" type="passenger" depart="284.00">
        <route edges="-gneE10 gneE11 gneE12 gneE13 gneE14 gneE15 gneE16 gneE20 gneE22 gneE23"/>
    </vehicle>
    <vehicle id="veh72" type="passenger" depart="288.00">
        <route edges="gneE20 gneE22 gneE23 gneE24 -gneE55 -gneE52 gneE43 -gneE14 -gneE13 -gneE12 -gneE11 gneE10"/>
    </vehicle>
    <vehicle id="veh73" type="passenger" depart="292.00">
        <route edges="-gneE19 -gneE18 -gneE17 -gneE15 -gneE43 gneE52 -gneE48"/>
    </vehicle>
    <vehicle id="veh74" type="passenger" depart="296.00">
        <route edges="-gneE52 gneE43 gneE15 gneE48 gneE55 -gneE24 -gneE23 -gneE22"/>
    </vehicle>
    <vehicle id="veh75" type="passenger" depart="300.00">
        <route edges="-gneE18 -gneE17 gneE48 -gneE52 gneE43"/>
    </vehicle>
    <vehicle id="veh76" type="passenger" depart="304.00">
        <route edges="gneE12 gneE13 gneE14 gneE15 gneE16 gneE20 gneE22 -gneE35 -gneE34 -gneE32 -gneE31"/>
    </vehicle>
    <vehicle id="veh77" type="passenger" depart="308.00">
        <route edges="gneE16 gneE20 gneE22 gneE23 gneE24 -gneE55 -gneE48 gneE17"/>
    </vehicle>
    <vehicle id="veh78" type="passenger" depart="312.00">
        <route edges="-gneE17 gneE48 -gneE52 -gneE54 gneE46 gneE12 gneE13 gneE14"/>
    </vehicle>
    <vehicle id="veh79" type="passenger" depart="316.00">
        <route edges="gneE14 -gneE43 gneE52 -gneE48 -gneE15"/>
    </vehicle>
    <vehicle id="veh80" type="passenger" depart="320.00">
        <route edges="-gneE34 -gneE32 -gneE31 -gneE51 gneE49 -gneE16 gneE48 -gneE52 -gneE54 gneE46"/>
    </vehicle>
    <vehicle id="veh81" type="passenger" depart="324.00">
        <route edges="gneE14 -gneE43 gneE52 gneE55 -gneE24 -gneE23"/>
    </vehicle>
    <vehicle id="veh82" type="passenger" depart="328.00">
        <route edges="-gneE49 -gneE50 -gneE19 -gneE18 -gneE17 gneE48 -gneE52"/>
    </vehicle>
    <vehicle id="veh83" type="passenger" depart="332.00">
        <route edges="gneE22 gneE23 gneE24 -gneE55 -gneE52 -gneE54 gneE46"/>
    </vehicle>
    <vehicle id="veh84" type="passenger" depart="336.00">
        <route edges="-gneE14 -gneE13 -gneE12"/>
    </vehicle>
    <vehicle id="veh85" type="passenger" depart="340.00">
        <route edges="-gneE51 gneE49 -gneE16 -gneE15 -gneE14 -gneE13 -gneE12 -gneE11"/>
    </vehicle>
    <vehicle id="veh86" type="passenger" depart="344.00">
        <route edges="-gneE18 -gneE17 -gneE15"/>
    </vehicle>
    <vehicle id="veh87" type="passenger" depart="348.00">
        <route edges="-gneE14 -gneE13 -gneE12 -gneE11 gneE10 -gneE19 -gneE18 -gneE17 gneE16"/>
    </vehicle>
    <vehicle id="veh88" type="passenger" depart="352.00">
        <route edges="-gneE15 -gneE43 -gneE54 gneE46 gneE12 gneE13"/>
    </vehicle>
    <vehicle id="veh89" type="passenger" depart="356.00">
        <route edges="gneE54 gneE43 -gneE14 -gneE13 -gneE12 -gneE11 gneE10 -gneE19 -gneE18 -gneE17"/>
    </vehicle>
    <vehicle id="veh90" type="passenger" depart="360.00">
        <route edges="gneE24 -gneE55 -gneE52 -gneE54 gneE46 gneE12 gneE13 gneE14"/>
    </vehicle>
    <vehicle id="veh91" type="passenger" depart="364.00">
        <route edges="-gneE19 -gneE18 -gneE17 -gneE15 -gneE43 gneE52"/>
    </vehicle>
    <vehicle id="veh92" type="passenger" depart="368.00">
        <route edges="gneE23 gneE24 -gneE55 -gneE48"/>
    </vehicle>
    <vehicle id="veh93" type="passenger" depart="372.00">
        <route edges="gneE48 gneE55 -gneE24 -gneE23 -gneE22 -gneE20 -gneE16 -gneE15"/>
    </vehicle>
    <vehicle id="veh94" type="passenger" depart="376.00">
        <route edges="gneE43"/>
    </vehicle>
    <vehicle id="veh95" type="passenger" depart="380.00">
        <route edges="-gneE16 gneE17 gneE18 gneE19 gneE50"/>
    </vehicle>
    <vehicle id="veh96" type="passenger" depart="384.00">
        <route edges="gneE32 gneE34 gneE35 -gneE22 -gneE20 -gneE16 gneE17 gneE18 gneE19 gneE50"/>
    </vehicle>
    <vehicle id="veh97" type="passenger" depart="388.00">
        <route edges="-gneE32 -gneE31 -gneE51 gneE49 gneE20 gneE22 gneE23"/>
    </vehicle>
    <vehicle id="veh98" type="passenger" depart="392.00">
        <route edges="gneE32 gneE34 gneE35 -gneE22 -gneE20 -gneE16 -gneE15 -gneE43"/>
    </vehicle>
    <vehicle id="veh99" type="passenger" depart="396.00">
        <route edges="-gneE11 gneE10 -gneE19 -gneE18 -gneE17 gneE16 -gneE49 -gneE50 -gneE10"/>
    </vehicle>
    <vehicle id="veh100" type="passenger" depart="400.00">
        <route edges="gneE10 -gneE19 -gneE18 -gneE17 gneE48 -gneE52 -gneE54 gneE46 gneE12"/>
    </vehicle>
    <vehicle id="veh101" type="passenger" depart="404.00">
        <route edges="-gneE16 gneE17"/>
    </vehicle>
    <vehicle id="veh102" type="passenger" depart="408.00">
        <route edges="-gneE12 -gneE11 gneE10 -gneE19 -gneE18 -gneE17 gneE48 -gneE52 -gneE54"/>
    </vehicle>
    <vehicle id="veh103" type="passenger" depart="412.00">
        <route edges="gneE10 gneE50 gneE51 gneE31 gneE32 gneE34 gneE35 -gneE22 -gneE20"/>
    </vehicle>
    <vehicle id="veh104" type="passenger" depart="416.00">
        <route edges="-gneE12 -gneE11 gneE10 gneE50 gneE49"/>
    </vehicle>
    <vehicle id="veh105" type="passenger" depart="420.00">
        <route edges="gneE46 gneE12 gneE13 gneE14"/>
    </vehicle>
    <vehicle id="veh106" type="passenger" depart="424.00">
        <route edges="gneE54 gneE52 -gneE48 gneE16 -gneE49 gneE51 gneE31"/>
    </vehicle>
    <vehicle id="veh107" type="passenger" depart="428.00">
        <route edges="gneE20 gneE22 gneE23 gneE24 -gneE55 -gneE52 gneE43 -gneE14 -gneE13 -gneE12"/>
    </vehicle>
    <vehicle id="veh108" type="passenger" depart="432.00">
        <route edges="gneE14 -gneE43 gneE52 gneE55 -gneE24 -gneE23"/>
    </vehicle>
    <vehicle id="veh109" type="passenger" depart="436.00">
        <route edges="gneE55 -gneE24 -gneE23 -gneE22 -gneE20 -gneE16 gneE17 gneE18 gneE19 -gneE10"/>
    </vehicle>
    <vehicle id="veh110" type="passenger" depart="440.00">
        <route edges="-gneE23 -gneE22 -gneE20 -gneE16 gneE48"/>
    </vehicle>
    <vehicle id="veh111" type="passenger" depart="444.00">
        <route edges="-gneE16 gneE48 gneE55 -gneE24 -gneE23 -gneE35 -gneE34"/>
    </vehicle>
    <vehicle id="veh112" type="passenger" depart="448.00">
        <route edges="-gneE34 -gneE32 -gneE31 -gneE51 gneE49 -gneE16 gneE48"/>
    </vehicle>
    <vehicle id="veh113" type="passenger" depart="452.00">
        <route edges="gneE20 gneE22 gneE23 gneE24 -gneE55 -gneE48 gneE16 -gneE49 gneE51"/>
    </vehicle>
    <vehicle id="veh114" type="passenger" depart="456.00">
        <route edges="-gneE20 -gneE16 -gneE15 -gneE14"/>
    </vehicle>
    <vehicle id="veh115" type="passenger" depart="460.00">
        <route edges="-gneE43 gneE52 -gneE48 gneE16 -gneE49 gneE51 gneE31"/>
    </vehicle>
    <vehicle id="veh116" type="passenger" depart="464.00">
        <route edges="gneE16 -gneE49 gneE51"/>
    </vehicle>
    <vehicle id="veh117" type="passenger" depart="468.00">
        <route edges="gneE22 gneE23 gneE24 -gneE55 -gneE52 gneE43 -gneE14"/>
    </vehicle>
    <vehicle id="veh118" type="passenger" depart="472.00">
        <route edges="-gneE35 -gneE34 -gneE32 -gneE31 -gneE51 gneE49 -gneE16 gneE48 gneE55 -gneE24 -gneE23 -gneE22"/>
    </vehicle>
    <vehicle id="veh119" type="passenger" depart="476.00">
        <route edges="-gneE31 -gneE51 gneE49 -gneE16 gneE17 gneE18"/>
    </vehicle>
    <vehicle id="veh120" type="passenger" depart="480.00">
        <route edges="-gneE51 gneE49 gneE20 gneE22 gneE23 gneE24"/>
    </vehicle>
    <vehicle id="veh121" type="passenger" depart="484.00">
        <route edges="-gneE10 gneE11 gneE12 gneE13 gneE14 gneE15 gneE17 gneE18 gneE19 gneE50"/>
    </vehicle>
    <vehicle id="veh122" type="passenger" depart="488.00">
        <route edges="-gneE18 -gneE17 gneE16 gneE20 gneE22 gneE23 gneE24"/>
    </vehicle>
    <vehicle id="veh123" type="passenger" depart="492.00">
        <route edges="gneE43 -gneE14 -gneE13 -gneE12"/>
    </vehicle>
    <vehicle id="veh124" type="passenger" depart="496.00">
        <route edges="gneE12 gneE13 gneE14 -gneE43 gneE52 -gneE48 -gneE15 -gneE14 -gneE13 -gneE12 -gneE46 gneE54"/>
    </vehicle>
    <vehicle id="veh125" type="passenger" depart="500.00">
        <route edges="-gneE10 gneE11 gneE12 gneE13 gneE14 gneE15 gneE16 gneE20 gneE22 gneE23 gneE24 -gneE55"/>
    </vehicle>
    <vehicle id="veh126" type="passenger" depart="504.00">
        <route edges="-gneE50 -gneE19 -gneE18 -gneE17 -gneE15 -gneE43 gneE52 -gneE48"/>
    </vehicle>
    <vehicle id="veh127" type="passenger" depart="508.00">
        <route edges="-gneE20 -gneE49 -gneE50 -gneE19"/>
    </vehicle>
    <vehicle id="veh128" type="passenger" depart="512.00">
        <route edges="-gneE31 -gneE51 gneE49 -gneE16 gneE48 gneE55 -gneE24 -gneE23 -gneE22"/>
    </vehicle>
    <vehicle id="veh129" type="passenger" depart="516.00">
        <route edges="-gneE32 -gneE31 -gneE51 gneE49"/>
    </vehicle>
    <vehicle id="veh130" type="passenger" depart="520.00">
        <route edges="gneE52 gneE55 -gneE24 -gneE23 -gneE35 -gneE34 -gneE32 -gneE31"/>
    </vehicle>
    <vehicle id="veh131" type="passenger" depart="524.00">
        <route edges="-gneE11 gneE10 -gneE19 -gneE18 -gneE17 gneE16 gneE20 gneE22 -gneE35 -gneE34 -gneE32 -gneE31"/>
    </vehicle>
    <vehicle id="veh132" type="passenger" depart="528.00">
        <route edges="gneE46 -gneE11 gneE10 -gneE19"/>
    </vehicle>
    <vehicle id="veh133" type="passenger" depart="532.00">
        <route edges="gneE18 gneE19 gneE50 gneE49 -gneE16 -gneE15"/>
    </vehicle>
    <vehicle id="veh134" type="passenger" depart="536.00">
        <route edges="-gneE46 gneE54 gneE43 -gneE14 -gneE13 -gneE12 -gneE11 gneE10 -gneE19"/>
    </vehicle>
    <vehicle id="veh135" type="passenger" depart="540.00">
        <route edges="gneE16 -gneE49 -gneE50 -gneE10 gneE11 -gneE46"/>
    </vehicle>
    <vehicle id="veh136" type="passenger" depart="544.00">
        <route edges="gneE31 gneE32 gneE34 gneE35 -gneE22 -gneE20 -gneE16 -gneE15 -gneE14 -gneE13 -gneE12 -gneE11 gneE10"/>
    </vehicle>
    <vehicle id="veh137" type="passenger" depart="548.00">
        <route edges="-gneE49 -gneE50 -gneE19 -gneE18 -gneE17 -gneE15 -gneE14 -gneE13 -gneE12 -gneE11"/>
    </vehicle>
    <vehicle id="veh138" type="passenger" depart="552.00">
        <route edges="gneE43 -gneE14 -gneE13 -gneE12"/>
    </vehicle>
    <vehicle id="veh139" type="passenger" depart="556.00">
        <route edges="gneE32 gneE34 gneE35 -gneE22 -gneE20 -gneE16 -gneE15 -gneE14 -gneE13 -gneE12 -gneE46"/>
    </vehicle>
    <vehicle id="veh140" type="passenger" depart="560.00">
        <route edges="gneE51 gneE31 gneE32 gneE34 gneE35 -gneE22 -gneE20 -gneE16 gneE48 gneE55 -gneE24"/>
    </vehicle>
    <vehicle id="veh141" type="passenger" depart="564.00">
        <route edges="gneE14"/>
    </vehicle>
    <vehicle id="veh142" type="passenger" depart="568.00">
        <route edges="gneE22 -gneE35 -gneE34 -gneE32"/>
    </vehicle>
    <vehicle id="veh143" type="passenger" depart="572.00">
        <route edges="-gneE49 -gneE50 -gneE19 -gneE18 -gneE17 gneE16 gneE20 gneE22 -gneE35"/>
    </vehicle>
    <vehicle id="veh144" type="passenger" depart="576.00">
        <route edges="gneE50 gneE49 gneE20 gneE22 gneE23"/>
    </vehicle>
    <vehicle id="veh145" type="passenger" depart="580.00">
        <route edges="-gneE43 gneE52 -gneE48 gneE16 -gneE49 gneE51 gneE31"/>
    </vehicle>
    <vehicle id="veh146" type="passenger" depart="584.00">
        <route edges="gneE16 -gneE49 -gneE50 -gneE19 -gneE18 -gneE17 gneE48 gneE55 -gneE24"/>
    </vehicle>
    <vehicle id="veh147" type="passenger" depart="588.00">
        <route edges="-gneE55 -gneE48 -gneE15"/>
    </vehicle>
    <vehicle id="veh148" type="passenger" depart="592.00">
        <route edges="-gneE22 -gneE20 -gneE16 -gneE15 -gneE14"/>
    </vehicle>
    <vehicle id="veh149" type="passenger" depart="596.00">
        <route edges="-gneE14 -gneE13 -gneE12 -gneE11 gneE10 -gneE19 -gneE18 -gneE17 gneE16"/>
    </vehicle>
    <vehicle id="veh150" type="passenger" depart="600.00">
        <route edges="gneE35 gneE23 gneE24 -gneE55 -gneE52 gneE43"/>
    </vehicle>
    <vehicle id="veh151" type="passenger" depart="604.00">
        <route edges="-gneE22 -gneE20 -gneE16 -gneE15 -gneE43 gneE52"/>
    </vehicle>
    <vehicle id="veh152" type="passenger" depart="608.00">
        <route edges="-gneE43 gneE52 -gneE48 gneE16 gneE20"/>
    </vehicle>
    <vehicle id="veh153" type="passenger" depart="612.00">
        <route edges="gneE15 gneE48 -gneE52 -gneE54"/>
    </vehicle>
    <vehicle id="veh154" type="passenger" depart="616.00">
        <route edges="gneE20 gneE22 gneE23 gneE24 -gneE55 -gneE52 gneE43 -gneE14 -gneE13 -gneE12 -gneE11 gneE10"/>
    </vehicle>
    <vehicle id="veh155" type="passenger" depart="620.00">
        <route edges="gneE46 gneE12 gneE13 gneE14 gneE15 gneE16 gneE20 gneE22 gneE23 gneE24"/>
    </vehicle>
    <vehicle id="veh156" type="passenger" depart="624.00">
        <route edges="-gneE48 -gneE15 -gneE14 -gneE13 -gneE12 -gneE46 gneE54"/>
    </vehicle>
    <vehicle id="veh157" type="passenger" depart="628.00">
        <route edges="-gneE49 -gneE50 -gneE19 -gneE18 -gneE17 -gneE15 -gneE14 -gneE13 -gneE12"/>
    </vehicle>
    <vehicle id="veh158" type="passenger" depart="632.00">
        <route edges="gneE54 gneE52 -gneE48 gneE16 -gneE49 gneE51"/>
    </vehicle>
    <vehicle id="veh159" type="passenger" depart="636.00">
        <route edges="gneE11 gneE12 gneE13 gneE14 gneE15 gneE16 gneE20 gneE22 gneE23 gneE24"/>
    </vehicle>
    <vehicle id="veh160" type="passenger" depart="640.00">
        <route edges="gneE20 gneE22 gneE23 gneE24 -gneE55 -gneE48 -gneE15"/>
    </vehicle>
    <vehicle id="veh161" type="passenger" depart="644.00">
        <route edges="gneE32 gneE34 gneE35 gneE23 gneE24 -gneE55 -gneE48 gneE16"/>
    </vehicle>
    <vehicle id="veh162" type="passenger" depart="648.00">
        <route edges="-gneE32 -gneE31 -gneE51 -gneE50 -gneE19 -gneE18 -gneE17 gneE16 -gneE49 gneE51 gneE31"/>
    </vehicle>
    <vehicle id="veh163" type="passenger" depart="652.00">
        <route edges="gneE12 gneE13 gneE14 gneE15 gneE48"/>
    </vehicle>
    <vehicle id="veh164" type="passenger" depart="656.00">
        <route edges="-gneE12 -gneE46 gneE54 gneE52 -gneE48 gneE17 gneE18 gneE19"/>
    </vehicle>
    <vehicle id="veh165" type="passenger" depart="660.00">
        <route edges="gneE50 gneE51 gneE31 gneE32 gneE34 gneE35 -gneE22 -gneE20 -gneE49 -gneE50 -gneE19"/>
    </vehicle>
    <vehicle id="veh166" type="passenger" depart="664.00">
        <route edges="-gneE14 -gneE13 -gneE12 -gneE11 gneE10 -gneE19 -gneE18 -gneE17 gneE16 gneE20 gneE22 gneE23 gneE24 -gneE55"/>
    </vehicle>
    <vehicle id="veh167" type="passenger" depart="668.00">
        <route edges="gneE11 gneE12 gneE13 gneE14 -gneE43"/>
    </vehicle>
    <vehicle id="veh168" type="passenger" depart="672.00">
        <route edges="gneE22 -gneE35 -gneE34 -gneE32 -gneE31 -gneE51 gneE49 -gneE16 gneE48 gneE55"/>
    </vehicle>
    <vehicle id="veh169" type="passenger" depart="676.00">
        <route edges="gneE10 -gneE19 -gneE18 -gneE17 gneE16 -gneE49"/>
    </vehicle>
    <vehicle id="veh170" type="passenger" depart="680.00">
        <route edges="gneE54 gneE43 -gneE14 -gneE13 -gneE12 -gneE11 gneE10 -gneE19"/>
    </vehicle>
    <vehicle id="veh171" type="passenger" depart="684.00">
        <route edges="gneE13 gneE14 gneE15 gneE48 -gneE52 gneE43"/>
    </vehicle>
    <vehicle id="veh172" type="passenger" depart="688.00">
        <route edges="gneE32 gneE34 gneE35 gneE23 gneE24"/>
    </vehicle>
    <vehicle id="veh173" type="passenger" depart="692.00">
        <route edges="gneE19 gneE50 gneE49 -gneE16 gneE48 -gneE52"/>
    </vehicle>
    <vehicle id="veh174" type="passenger" depart="696.00">
        <route edges="gneE54 gneE52 -gneE48 gneE17 gneE18 gneE19 -gneE10"/>
    </vehicle>
    <vehicle id="veh175" type="passenger" depart="700.00">
        <route edges="-gneE50 -gneE19 -gneE18 -gneE17 gneE48 -gneE52"/>
    </vehicle>
    <vehicle id="veh176" type="passenger" depart="704.00">
        <route edges="gneE22 -gneE35 -gneE34 -gneE32"/>
    </vehicle>
    <vehicle id="veh177" type="passenger" depart="708.00">
        <route edges="-gneE20 -gneE16 gneE48 -gneE52"/>
    </vehicle>
    <vehicle id="veh178" type="passenger" depart="712.00">
        <route edges="gneE17 gneE18 gneE19 -gneE10 gneE11"/>
    </vehicle>
    <vehicle id="veh179" type="passenger" depart="716.00">
        <route edges="gneE48 -gneE52 -gneE54"/>
    </vehicle>
    <vehicle id="veh180" type="passenger" depart="720.00">
        <route edges="-gneE22 -gneE20 -gneE16 gneE17"/>
    </vehicle>
    <vehicle id="veh181" type="passenger" depart="724.00">
        <route edges="-gneE49 -gneE50 -gneE19 -gneE18 -gneE17 -gneE15 -gneE14 -gneE13 -gneE12 -gneE11"/>
    </vehicle>
    <vehicle id="veh182" type="passenger" depart="728.00">
        <route edges="-gneE49 -gneE50 -gneE19 -gneE18 -gneE17 -gneE15"/>
    </vehicle>
    <vehicle id="veh183" type="passenger" depart="732.00">
        <route edges="gneE17 gneE18 gneE19 gneE50 gneE49"/>
    </vehicle>
    <vehicle id="veh184" type="passenger" depart="736.00">
        <route edges="gneE23 gneE24 -gneE55 -gneE48 -gneE15 -gneE43 gneE52"/>
    </vehicle>
    <vehicle id="veh185" type="passenger" depart="740.00">
        <route edges="-gneE17 gneE48 -gneE52 gneE43"/>
    </vehicle>
    <vehicle id="veh186" type="passenger" depart="744.00">
        <route edges="gneE31 gneE32 gneE34 gneE35 -gneE22 -gneE20 -gneE16 gneE48 gneE55 -gneE24 -gneE23"/>
    </vehicle>
    <vehicle id="veh187" type="passenger" depart="748.00">
        <route edges="-gneE54 gneE46 -gneE11 gneE10 -gneE19"/>
    </vehicle>
    <vehicle id="veh188" type="passenger" depart="752.00">