<?xml version="1.0"?>
<!-- generated on 2017-12-16 13:37:10.634018 by $Id: route2trips.py 25256 2017-07-19 06:38:15Z behrisch $ via randomTrips.py
  options: -n AmpelDemo2.net.xml <doubleminus>seed 100 <doubleminus>fringe-factor 10 -p 4 -r AmpelDemo2.rou.xml -o AmpelDemo2.trips.xml -e 18000 <doubleminus>vehicle-class passenger <doubleminus>vclass passenger <doubleminus>prefix veh <doubleminus>min-distance 3 <doubleminus>trip-attributes speedDev="0.1" departLane="best" <doubleminus>validate
-->
<routes xmlns:xsi="http://www.w3.org/2001/XMLSchema-instance" xsi:noNamespaceSchemaLocation="http://sumo.dlr.de/xsd/routes_file.xsd">
    <vType id="passenger" speedFactor="normc(1.00,0.10,0.20,2.00)" vClass="passenger">
    </vType>
    <trip id="veh0" depart="0.00" from="-gneE17" to="-gneE52" type="passenger"/>
    <trip id="veh1" depart="4.00" from="gneE31" to="gneE22" type="passenger"/>
    <trip id="veh2" depart="8.00" from="gneE23" to="-gneE51" type="passenger"/>
    <trip id="veh3" depart="12.00" from="gneE34" to="gneE11" type="passenger"/>
    <trip id="veh4" depart="16.00" from="-gneE14" to="-gneE52" type="passenger"/>
    <trip id="veh5" depart="20.00" from="-gneE12" to="gneE51" type="passenger"/>
    <trip id="veh6" depart="24.00" from="-gneE34" to="gneE31" type="passenger"/>
    <trip id="veh7" depart="28.00" from="-gneE22" to="-gneE19" type="passenger"/>
    <trip id="veh8" depart="32.00" from="-gneE20" to="-gneE43" type="passenger"/>
    <trip id="veh9" depart="36.00" from="gneE16" to="gneE54" type="passenger"/>
    <trip id="veh10" depart="40.00" from="-gneE22" to="gneE52" type="passenger"/>
    <trip id="veh11" depart="44.00" from="gneE12" to="gneE49" type="passenger"/>
    <trip id="veh12" depart="48.00" from="gneE35" to="-gneE18" type="passenger"/>
    <trip id="veh13" depart="52.00" from="gneE18" to="-gneE16" type="passenger"/>
    <trip id="veh14" depart="56.00" from="-gneE10" to="-gneE49" type="passenger"/>
    <trip id="veh15" depart="60.00" from="gneE31" to="gneE13" type="passenger"/>
    <trip id="veh16" depart="64.00" from="-gneE20" to="gneE43" type="passenger"/>
    <trip id="veh17" depart="68.00" from="gneE50" to="-gneE23" type="passenger"/>
    <trip id="veh18" depart="72.00" from="-gneE52" to="gneE17" type="passenger"/>
    <trip id="veh19" depart="76.00" from="gneE49" to="-gneE16" type="passenger"/>
    <trip id="veh20" depart="80.00" from="gneE12" to="gneE54" type="passenger"/>
    <trip id="veh21" depart="84.00" from="gneE15" to="gneE22" type="passenger"/>
    <trip id="veh22" depart="88.00" from="gneE31" to="gneE10" type="passenger"/>
    <trip id="veh23" depart="92.00" from="-gneE32" to="gneE14" type="passenger"/>
    <trip id="veh24" depart="96.00" from="gneE11" to="-gneE43" type="passenger"/>
    <trip id="veh25" depart="100.00" from="-gneE55" to="gneE31" type="passenger"/>
    <trip id="veh26" depart="104.00" from="gneE34" to="gneE49" type="passenger"/>
    <trip id="veh27" depart="108.00" from="gneE18" to="-gneE24" type="passenger"/>
    <trip id="veh28" depart="112.00" from="gneE43" to="gneE50" type="passenger"/>
    <trip id="veh29" depart="116.00" from="gneE22" to="gneE31" type="passenger"/>
    <trip id="veh30" depart="120.00" from="gneE10" to="-gneE55" type="passenger"/>
    <trip id="veh31" depart="124.00" from="gneE14" to="-gneE17" type="passenger"/>
    <trip id="veh32" depart="128.00" from="gneE19" to="gneE46" type="passenger"/>
    <trip id="veh33" depart="132.00" from="-gneE18" to="gneE24" type="passenger"/>
    <trip id="veh34" depart="136.00" from="gneE22" to="-gneE16" type="passenger"/>
    <trip id="veh35" depart="140.00" from="-gneE12" to="gneE15" type="passenger"/>
    <trip id="veh36" depart="144.00" from="-gneE22" to="-gneE34" type="passenger"/>
    <trip id="veh37" depart="148.00" from="gneE16" to="gneE18" type="passenger"/>
    <trip id="veh38" depart="152.00" from="gneE24" to="gneE13" type="passenger"/>
    <trip id="veh39" depart="156.00" from="-gneE43" to="-gneE10" type="passenger"/>
    <trip id="veh40" depart="160.00" from="gneE11" to="gneE22" type="passenger"/>
    <trip id="veh41" depart="164.00" from="-gneE22" to="-gneE49" type="passenger"/>
    <trip id="veh42" depart="168.00" from="gneE22" to="gneE16" type="passenger"/>
    <trip id="veh43" depart="172.00" from="gneE18" to="-gneE54" type="passenger"/>
    <trip id="veh44" depart="176.00" from="gneE12" to="gneE20" type="passenger"/>
    <trip id="veh45" depart="180.00" from="-gneE18" to="gneE34" type="passenger"/>
    <trip id="veh46" depart="184.00" from="gneE48" to="-gneE12" type="passenger"/>
    <trip id="veh47" depart="188.00" from="-gneE20" to="-gneE24" type="passenger"/>
    <trip id="veh48" depart="192.00" from="-gneE13" to="gneE52" type="passenger"/>
    <trip id="veh49" depart="196.00" from="-gneE49" to="gneE12" type="passenger"/>
    <trip id="veh50" depart="200.00" from="-gneE52" to="-gneE20" type="passenger"/>
    <trip id="veh51" depart="204.00" from="gneE14" to="-gneE24" type="passenger"/>
    <trip id="veh52" depart="208.00" from="-gneE17" to="-gneE22" type="passenger"/>
    <trip id="veh53" depart="212.00" from="-gneE50" to="gneE51" type="passenger"/>
    <trip id="veh54" depart="216.00" from="gneE15" to="gneE54" type="passenger"/>
    <trip id="veh55" depart="220.00" from="-gneE49" to="-gneE31" type="passenger"/>
    <trip id="veh56" depart="224.00" from="gneE22" to="-gneE20" type="passenger"/>
    <trip id="veh57" depart="228.00" from="gneE55" to="-gneE49" type="passenger"/>
    <trip id="veh58" depart="232.00" from="-gneE31" to="-gneE31" type="passenger"/>
    <trip id="veh59" depart="236.00" from="-gneE34" to="gneE51" type="passenger"/>
    <trip id="veh60" depart="240.00" from="gneE55" to="gneE13" type="passenger"/>
    <trip id="veh61" depart="244.00" from="-gneE23" to="-gneE10" type="passenger"/>
    <trip id="veh62" depart="248.00" from="-gneE14" to="-gneE34" type="passenger"/>
    <trip id="veh63" depart="252.00" from="gneE17" to="gneE16" type="passenger"/>
    <trip id="veh64" depart="256.00" from="gneE46" to="gneE35" type="passenger"/>
    <trip id="veh65" depart="260.00" from="-gneE46" to="gneE19" type="passenger"/>
    <trip id="veh66" depart="264.00" from="-gneE51" to="gneE23" type="passenger"/>
    <trip id="veh67" depart="268.00" from="-gneE19" to="gneE54" type="passenger"/>
    <trip id="veh68" depart="272.00" from="-gneE11" to="gneE16" type="passenger"/>
    <trip id="veh69" depart="276.00" from="-gneE46" to="gneE34" type="passenger"/>
    <trip id="veh70" depart="280.00" from="-gneE17" to="gneE49" type="passenger"/>
    <trip id="veh71" depart="284.00" from="-gneE10" to="gneE23" type="passenger"/>
    <trip id="veh72" depart="288.00" from="gneE20" to="gneE10" type="passenger"/>
    <trip id="veh73" depart="292.00" from="-gneE19" to="-gneE48" type="passenger"/>
    <trip id="veh74" depart="296.00" from="-gneE52" to="-gneE22" type="passenger"/>
    <trip id="veh75" depart="300.00" from="-gneE18" to="gneE43" type="passenger"/>
    <trip id="veh76" depart="304.00" from="gneE12" to="-gneE31" type="passenger"/>
    <trip id="veh77" depart="308.00" from="gneE16" to="gneE17" type="passenger"/>
    <trip id="veh78" depart="312.00" from="-gneE17" to="gneE14" type="passenger"/>
    <trip id="veh79" depart="316.00" from="gneE14" to="-gneE15" type="passenger"/>
    <trip id="veh80" depart="320.00" from="-gneE34" to="gneE46" type="passenger"/>
    <trip id="veh81" depart="324.00" from="gneE14" to="-gneE23" type="passenger"/>
    <trip id="veh82" depart="328.00" from="-gneE49" to="-gneE52" type="passenger"/>
    <trip id="veh83" depart="332.00" from="gneE22" to="gneE46" type="passenger"/>
    <trip id="veh84" depart="336.00" from="-gneE14" to="-gneE12" type="passenger"/>
    <trip id="veh85" depart="340.00" from="-gneE51" to="-gneE11" type="passenger"/>
    <trip id="veh86" depart="344.00" from="-gneE18" to="-gneE15" type="passenger"/>
    <trip id="veh87" depart="348.00" from="-gneE14" to="gneE16" type="passenger"/>
    <trip id="veh88" depart="352.00" from="-gneE15" to="gneE13" type="passenger"/>
    <trip id="veh89" depart="356.00" from="gneE54" to="-gneE17" type="passenger"/>
    <trip id="veh90" depart="360.00" from="gneE24" to="gneE14" type="passenger"/>
    <trip id="veh91" depart="364.00" from="-gneE19" to="gneE52" type="passenger"/>
    <trip id="veh92" depart="368.00" from="gneE23" to="-gneE48" type="passenger"/>
    <trip id="veh93" depart="372.00" from="gneE48" to="-gneE15" type="passenger"/>
    <trip id="veh94" depart="376.00" from="gneE43" to="gneE43" type="passenger"/>
    <trip id="veh95" depart="380.00" from="-gneE16" to="gneE50" type="passenger"/>
    <trip id="veh96" depart="384.00" from="gneE32" to="gneE50" type="passenger"/>
    <trip id="veh97" depart="388.00" from="-gneE32" to="gneE23" type="passenger"/>
    <trip id="veh98" depart="392.00" from="gneE32" to="-gneE43" type="passenger"/>
    <trip id="veh99" depart="396.00" from="-gneE11" to="-gneE10" type="passenger"/>
    <trip id="veh100" depart="400.00" from="gneE10" to="gneE12" type="passenger"/>
    <trip id="veh101" depart="404.00" from="-gneE16" to="gneE17" type="passenger"/>
    <trip id="veh102" depart="408.00" from="-gneE12" to="-gneE54" type="passenger"/>
    <trip id="veh103" depart="412.00" from="gneE10" to="-gneE20" type="passenger"/>
    <trip id="veh104" depart="416.00" from="-gneE12" to="gneE49" type="passenger"/>
    <trip id="veh105" depart="420.00" from="gneE46" to="gneE14" type="passenger"/>
    <trip id="veh106" depart="424.00" from="gneE54" to="gneE31" type="passenger"/>
    <trip id="veh107" depart="428.00" from="gneE20" to="-gneE12" type="passenger"/>
    <trip id="veh108" depart="432.00" from="gneE14" to="-gneE23" type="passenger"/>
    <trip id="veh109" depart="436.00" from="gneE55" to="-gneE10" type="passenger"/>
    <trip id="veh110" depart="440.00" from="-gneE23" to="gneE48" type="passenger"/>
    <trip id="veh111" depart="444.00" from="-gneE16" to="-gneE34" type="passenger"/>
    <trip id="veh112" depart="448.00" from="-gneE34" to="gneE48" type="passenger"/>
    <trip id="veh113" depart="452.00" from="gneE20" to="gneE51" type="passenger"/>
    <trip id="veh114" depart="456.00" from="-gneE20" to="-gneE14" type="passenger"/>
    <trip id="veh115" depart="460.00" from="-gneE43" to="gneE31" type="passenger"/>
    <trip id="veh116" depart="464.00" from="gneE16" to="gneE51" type="passenger"/>
    <trip id="veh117" depart="468.00" from="gneE22" to="-gneE14" type="passenger"/>
    <trip id="veh118" depart="472.00" from="-gneE35" to="-gneE22" type="passenger"/>
    <trip id="veh119" depart="476.00" from="-gneE31" to="gneE18" type="passenger"/>
    <trip id="veh120" depart="480.00" from="-gneE51" to="gneE24" type="passenger"/>
    <trip id="veh121" depart="484.00" from="-gneE10" to="gneE50" type="passenger"/>
    <trip id="veh122" depart="488.00" from="-gneE18" to="gneE24" type="passenger"/>
    <trip id="veh123" depart="492.00" from="gneE43" to="-gneE12" type="passenger"/>
    <trip id="veh124" depart="496.00" from="gneE12" to="gneE54" type="passenger"/>
    <trip id="veh125" depart="500.00" from="-gneE10" to="-gneE55" type="passenger"/>
    <trip id="veh126" depart="504.00" from="-gneE50" to="-gneE48" type="passenger"/>
    <trip id="veh127" depart="508.00" from="-gneE20" to="-gneE19" type="passenger"/>
    <trip id="veh128" depart="512.00" from="-gneE31" to="-gneE22" type="passenger"/>
    <trip id="veh129" depart="516.00" from="-gneE32" to="gneE49" type="passenger"/>
    <trip id="veh130" depart="520.00" from="gneE52" to="-gneE31" type="passenger"/>
    <trip id="veh131" depart="524.00" from="-gneE11" to="-gneE31" type="passenger"/>
    <trip id="veh132" depart="528.00" from="gneE46" to="-gneE19" type="passenger"/>
    <trip id="veh133" depart="532.00" from="gneE18" to="-gneE15" type="passenger"/>
    <trip id="veh134" depart="536.00" from="-gneE46" to="-gneE19" type="passenger"/>
    <trip id="veh135" depart="540.00" from="gneE16" to="-gneE46" type="passenger"/>
    <trip id="veh136" depart="544.00" from="gneE31" to="gneE10" type="passenger"/>
    <trip id="veh137" depart="548.00" from="-gneE49" to="-gneE11" type="passenger"/>
    <trip id="veh138" depart="552.00" from="gneE43" to="-gneE12" type="passenger"/>
    <trip id="veh139" depart="556.00" from="gneE32" to="-gneE46" type="passenger"/>
    <trip id="veh140" depart="560.00" from="gneE51" to="-gneE24" type="passenger"/>
    <trip id="veh141" depart="564.00" from="gneE14" to="gneE14" type="passenger"/>
    <trip id="veh142" depart="568.00" from="gneE22" to="-gneE32" type="passenger"/>
    <trip id="veh143" depart="572.00" from="-gneE49" to="-gneE35" type="passenger"/>
    <trip id="veh144" depart="576.00" from="gneE50" to="gneE23" type="passenger"/>
    <trip id="veh145" depart="580.00" from="-gneE43" to="gneE31" type="passenger"/>
    <trip id="veh146" depart="584.00" from="gneE16" to="-gneE24" type="passenger"/>
    <trip id="veh147" depart="588.00" from="-gneE55" to="-gneE15" type="passenger"/>
    <trip id="veh148" depart="592.00" from="-gneE22" to="-gneE14" type="passenger"/>
    <trip id="veh149" depart="596.00" from="-gneE14" to="gneE16" type="passenger"/>
    <trip id="veh150" depart="600.00" from="gneE35" to="gneE43" type="passenger"/>
    <trip id="veh151" depart="604.00" from="-gneE22" to="gneE52" type="passenger"/>
    <trip id="veh152" depart="608.00" from="-gneE43" to="gneE20" type="passenger"/>
    <trip id="veh153" depart="612.00" from="gneE15" to="-gneE54" type="passenger"/>
    <trip id="veh154" depart="616.00" from="gneE20" to="gneE10" type="passenger"/>
    <trip id="veh155" depart="620.00" from="gneE46" to="gneE24" type="passenger"/>
    <trip id="veh156" depart="624.00" from="-gneE48" to="gneE54" type="passenger"/>
    <trip id="veh157" depart="628.00" from="-gneE49" to="-gneE12" type="passenger"/>
    <trip id="veh158" depart="632.00" from="gneE54" to="gneE51" type="passenger"/>
    <trip id="veh159" depart="636.00" from="gneE11" to="gneE24" type="passenger"/>
    <trip id="veh160" depart="640.00" from="gneE20" to="-gneE15" type="passenger"/>
    <trip id="veh161" depart="644.00" from="gneE32" to="gneE16" type="passenger"/>
    <trip id="veh162" depart="648.00" from="-gneE32" to="gneE31" type="passenger"/>
    <trip id="veh163" depart="652.00" from="gneE12" to="gneE48" type="passenger"/>
    <trip id="veh164" depart="656.00" from="-gneE12" to="gneE19" type="passenger"/>
    <trip id="veh165" depart="660.00" from="gneE50" to="-gneE19" type="passenger"/>
    <trip id="veh166" depart="664.00" from="-gneE14" to="-gneE55" type="passenger"/>
    <trip id="veh167" depart="668.00" from="gneE11" to="-gneE43" type="passenger"/>
    <trip id="veh168" depart="672.00" from="gneE22" to="gneE55" type="passenger"/>
    <trip id="veh169" depart="676.00" from="gneE10" to="-gneE49" type="passenger"/>
    <trip id="veh170" depart="680.00" from="gneE54" to="-gneE19" type="passenger"/>
    <trip id="veh171" depart="684.00" from="gneE13" to="gneE43" type="passenger"/>
    <trip id="veh172" depart="688.00" from="gneE32" to="gneE24" type="passenger"/>
    <trip id="veh173" depart="692.00" from="gneE19" to="-gneE52" type="passenger"/>
    <trip id="veh174" depart="696.00" from="gneE54" to="-gneE10" type="passenger"/>
    <trip id="veh175" depart="700.00" from="-gneE50" to="-gneE52" type="passenger"/>
    <trip id="veh176" depart="704.00" from="gneE22" to="-gneE32" type="passenger"/>
    <trip id="veh177" depart="708.00" from="-gneE20" to="-gneE52" type="passenger"/>
    <trip id="veh178" depart="712.00" from="gneE17" to="gneE11" type="passenger"/>
    <trip id="veh179" depart="716.00" from="gneE48" to="-gneE54" type="passenger"/>
    <trip id="veh180" depart="720.00" from="-gneE22" to="gneE17" type="passenger"/>
    <trip id="veh181" depart="724.00" from="-gneE49" to="-gneE11" type="passenger"/>
    <trip id="veh182" depart="728.00" from="-gneE49" to="-gneE15" type="passenger"/>
    <trip id="veh183" depart="732.00" from="gneE17" to="gneE49" type="passenger"/>
    <trip id="veh184" depart="736.00" from="gneE23" to="gneE52" type="passenger"/>
    <trip id="veh185" depart="740.00" from="-gneE17" to="gneE43" type="passenger"/>
    <trip id="veh186" depart="744.00" from="gneE31" to="-gneE23" type="passenger"/>
    <trip id="veh187" depart="748.00" from="-gneE54" to="-gneE19" type="passenger"/>
    <trip id="veh188" depart="752.00" from="-gneE34" to="gneE11" type="passenger"/>
    <trip id="veh189" depart="756.00" from="-gneE48" to="-gneE49" type="passenger"/>
    <trip id="veh190" depart="760.00" from="gneE22" to="gneE19" type="passenger"/>
    <trip id="veh191" depart="764.00" from="-gneE16" to="gneE13" type="passenger"/>
    <trip id="veh192" depart="768.00" from="gneE31" to="-gneE11" type="passenger"/>
    <trip id="veh193" depart="772.00" from="gneE24" to="-gneE11" type="passenger"/>
    <trip id="veh194" depart="776.00" from="-gneE51" to="-gneE48" type="passenger"/>
    <trip id="veh195" depart="780.00" from="-gneE11" to="-gneE14" type="passenger"/>
    <trip id="veh196" depart="784.00" from="gneE19" to="-gneE31" type="passenger"/>
    <trip id="veh197" depart="788.00" from="gneE11" to="-gneE18" type="passenger"/>
    <trip id="veh198" depart="792.00" from="gneE16" to="gneE51" type="passenger"/>
    <trip id="veh199" depart="796.00" from="gneE24" to="-gneE46" type="passenger"/>
    <trip id="veh200" depart="800.00" from="-gneE32" to="-gneE50" type="passenger"/>
    <trip id="veh201" depart="804.00" from="gneE55" to="-gneE48" type="passenger"/>
    <trip id="veh202" depart="808.00" from="-gneE32" to="gneE12" type="passenger"/>
    <trip id="veh203" depart="812.00" from="gneE17" to="gneE24" type="passenger"/>
    <trip id="veh204" depart="816.00" from="gneE22" to="gneE19" type="passenger"/>
    <trip id="veh205" depart="820.00" from="gneE54" to="-gneE55" type="passenger"/>
    <trip id="veh206" depart="824.00" from="gneE31" to="-gneE46" type="passenger"/>
    <trip id="veh207" depart="828.00" from="-gneE10" to="-gneE49" type="passenger"/>
    <trip id="veh208" depart="832.00" from="gneE11" to="-gneE49" type="passenger"/>
    <trip id="veh209" depart="836.00" from="-gneE22" to="-gneE18" type="passenger"/>
    <trip id="veh210" depart="840.00" from="-gneE12" to="gneE22" type="passenger"/>
    <trip id="veh211" depart="844.00" from="gneE11" to="gneE35" type="passenger"/>
    <trip id="veh212" depart="848.00" from="gneE46" to="gneE24" type="passenger"/>
    <trip id="veh213" depart="852.00" from="gneE32" to="gneE49" type="passenger"/>
    <trip id="veh214" depart="856.00" from="gneE50" to="gneE35" type="passenger"/>
    <trip id="veh215" depart="860.00" from="gneE49" to="-gneE43" type="passenger"/>
    <trip id="veh216" depart="864.00" from="gneE55" to="gneE49" type="passenger"/>
    <trip id="veh217" depart="868.00" from="gneE34" to="gneE43" type="passenger"/>
    <trip id="veh218" depart="872.00" from="gneE24" to="gneE14" type="passenger"/>
    <trip id="veh219" depart="876.00" from="gneE10" to="gneE51" type="passenger"/>
    <trip id="veh220" depart="880.00" from="-gneE32" to="gneE17" type="passenger"/>
    <trip id="veh221" depart="884.00" from="gneE51" to="-gneE31" type="passenger"/>
    <trip id="veh222" depart="888.00" from="-gneE18" to="-gneE34" type="passenger"/>
    <trip id="veh223" depart="892.00" from="-gneE51" to="gneE10" type="passenger"/>
    <trip id="veh224" depart="896.00" from="-gneE17" to="-gneE54" type="passenger"/>
    <trip id="veh225" depart="900.00" from="-gneE17" to="-gneE46" type="passenger"/>
    <trip id="veh226" depart="904.00" from="-gneE19" to="gneE17" type="passenger"/>
    <trip id="veh227" depart="908.00" from="gneE16" to="-gneE23" type="passenger"/>
    <trip id="veh228" depart="912.00" from="gneE55" to="-gneE32" type="passenger"/>
    <trip id="veh229" depart="916.00" from="gneE49" to="-gneE34" type="passenger"/>
    <trip id="veh230" depart="920.00" from="gneE13" to="gneE14" type="passenger"/>
    <trip id="veh231" depart="924.00" from="gneE14" to="-gneE43" type="passenger"/>
    <trip id="veh232" depart="928.00" from="gneE32" to="gneE16" type="passenger"/>
    <trip id="veh233" depart="932.00" from="gneE13" to="-gneE55" type="passenger"/>
    <trip id="veh234" depart="936.00" from="-gneE32" to="-gneE50" type="passenger"/>
    <trip id="veh235" depart="940.00" from="gneE55" to="gneE23" type="passenger"/>
    <trip id="veh236" depart="944.00" from="gneE55" to="-gneE35" type="passenger"/>
    <trip id="veh237" depart="948.00" from="-gneE31" to="gneE55" type="passenger"/>
    <trip id="veh238" depart="952.00" from="-gneE50" to="gneE14" type="passenger"/>
    <trip id="veh239" depart="956.00" from="gneE46" to="-gneE16" type="passenger"/>
    <trip id="veh240" depart="960.00" from="-gneE16" to="-gneE54" type="passenger"/>
    <trip id="veh241" depart="964.00" from="-gneE20" to="-gneE13" type="passenger"/>
    <trip id="veh242" depart="968.00" from="gneE22" to="gneE12" type="passenger"/>
    <trip id="veh243" depart="972.00" from="-gneE52" to="gneE17" type="passenger"/>
    <trip id="veh244" depart="976.00" from="-gneE34" to="-gneE49" type="passenger"/>
    <trip id="veh245" depart="980.00" from="-gneE43" to="gneE17" type="passenger"/>
    <trip id="veh246" depart="984.00" from="-gneE52" to="gneE14" type="passenger"/>
    <trip id="veh247" depart="988.00" from="gneE12" to="gneE13" type="passenger"/>
    <trip id="veh248" depart="992.00" from="-gneE12" to="gneE32" type="passenger"/>
    <trip id="veh249" depart="996.00" from="gneE50" to="-gneE13" type="passenger"/>
    <trip id="veh250" depart="1000.00" from="gneE24" to="gneE13" type="passenger"/>
    <trip id="veh251" depart="1004.00" from="gneE24" to="-gneE10" type="passenger"/>
    <trip id="veh252" depart="1008.00" from="-gneE11" to="gneE12" type="passenger"/>
    <trip id="veh253" depart="1012.00" from="gneE12" to="-gneE15" type="passenger"/>
    <trip id="veh254" depart="1016.00" from="gneE31" to="-gneE15" type="passenger"/>
    <trip id="veh255" depart="1020.00" from="gneE49" to="gneE34" type="passenger"/>
    <trip id="veh256" depart="1024.00" from="gneE23" to="gneE46" type="passenger"/>
    <trip id="veh257" depart="1028.00" from="-gneE32" to="gneE16" type="passenger"/>
    <trip id="veh258" depart="1032.00" from="-gneE11" to="gneE24" type="passenger"/>
    <trip id="veh259" depart="1036.00" from="-gneE19" to="-gneE12" type="passenger"/>
    <trip id="veh260" depart="1040.00" from="gneE31" to="-gneE13" type="passenger"/>
    <trip id="veh261" depart="1044.00" from="gneE17" to="gneE52" type="passenger"/>
    <trip id="veh262" depart="1048.00" from="gneE12" to="gneE12" type="passenger"/>
    <trip id="veh263" depart="1052.00" from="gneE31" to="gneE24" type="passenger"/>
    <trip id="veh264" depart="1056.00" from="-gneE55" to="-gneE12" type="passenger"/>
    <trip id="veh265" depart="1060.00" from="gneE55" to="gneE23" type="passenger"/>
    <trip id="veh266" depart="1064.00" from="-gneE54" to="gneE19" type="passenger"/>
    <trip id="veh267" depart="1068.00" from="-gneE24" to="-gneE23" type="passenger"/>
    <trip id="veh268" depart="1072.00" from="-gneE12" to="-gneE49" type="passenger"/>
    <trip id="veh269" depart="1076.00" from="gneE13" to="-gneE15" type="passenger"/>
    <trip id="veh270" depart="1080.00" from="-gneE19" to="-gneE48" type="passenger"/>
    <trip id="veh271" depart="1084.00" from="-gneE10" to="gneE34" type="passenger"/>
    <trip id="veh272" depart="1088.00" from="-gneE18" to="gneE49" type="passenger"/>
    <trip id="veh273" depart="1092.00" from="gneE13" to="-gneE34" type="passenger"/>
    <trip id="veh274" depart="1096.00" from="-gneE13" to="gneE17" type="passenger"/>
    <trip id="veh275" depart="1100.00" from="-gneE13" to="-gneE43" type="passenger"/>
    <trip id="veh276" depart="1104.00" from="gneE55" to="gneE35" type="passenger"/>
    <trip id="veh277" depart="1108.00" from="gneE22" to="gneE14" type="passenger"/>
    <trip id="veh278" depart="1112.00" from="gneE16" to="gneE24" type="passenger"/>
    <trip id="veh279" depart="1116.00" from="gneE48" to="-gneE15" type="passenger"/>
    <trip id="veh280" depart="1120.00" from="gneE49" to="gneE54" type="passenger"/>
    <trip id="veh281" depart="1124.00" from="gneE14" to="-gneE35" type="passenger"/>
    <trip id="veh282" depart="1128.00" from="-gneE12" to="-gneE43" type="passenger"/>
    <trip id="veh283" depart="1132.00" from="-gneE11" to="gneE19" type="passenger"/>
    <trip id="veh284" depart="1136.00" from="gneE15" to="gneE23" type="passenger"/>
    <trip id="veh285" depart="1140.00" from="gneE46" to="-gneE35" type="passenger"/>
    <trip id="veh286" depart="1144.00" from="gneE46" to="gneE12" type="passenger"/>
    <trip id="veh287" depart="1148.00" from="-gneE54" to="gneE46" type="passenger"/>
    <trip id="veh288" depart="1152.00" from="-gneE16" to="-gneE11" type="passenger"/>
    <trip id="veh289" depart="1156.00" from="gneE18" to="gneE22" type="passenger"/>
    <trip id="veh290" depart="1160.00" from="gneE11" to="gneE13" type="passenger"/>
    <trip id="veh291" depart="1164.00" from="gneE31" to="gneE35" type="passenger"/>
    <trip id="veh292" depart="1168.00" from="gneE17" to="gneE23" type="passenger"/>
    <trip id="veh293" depart="1172.00" from="gneE10" to="-gneE18" type="passenger"/>
    <trip id="veh294" depart="1176.00" from="gneE34" to="-gneE12" type="passenger"/>
    <trip id="veh295" depart="1180.00" from="-gneE19" to="gneE13" type="passenger"/>
    <trip id="veh296" depart="1184.00" from="-gneE46" to="gneE48" type="passenger"/>
    <trip id="veh297" depart="1188.00" from="-gneE34" to="-gneE55" type="passenger"/>
    <trip id="veh298" depart="1192.00" from="-gneE20" to="gneE43" type="passenger"/>
    <trip id="veh299" depart="1196.00" from="-gneE46" to="gneE22" type="passenger"/>
    <trip id="veh300" depart="1200.00" from="gneE23" to="-gneE52" type="passenger"/>
    <trip id="veh301" depart="1204.00" from="-gneE16" to="gneE54" type="passenger"/>
    <trip id="veh302" depart="1208.00" from="-gneE11" to="gneE35" type="passenger"/>
    <trip id="veh303" depart="1212.00" from="-gneE18" to="-gneE51" type="passenger"/>
    <trip id="veh304" depart="1216.00" from="-gneE51" to="-gneE50" type="passenger"/>
    <trip id="veh305" depart="1220.00" from="gneE14" to="gneE19" type="passenger"/>
    <trip id="veh306" depart="1224.00" from="gneE19" to="-gneE13" type="passenger"/>
    <trip id="veh307" depart="1228.00" from="-gneE48" to="-gneE20" type="passenger"/>
    <trip id="veh308" depart="1232.00" from="gneE54" to="gneE12" type="passenger"/>
    <trip id="veh309" depart="1236.00" from="gneE55" to="-gneE22" type="passenger"/>
    <trip id="veh310" depart="1240.00" from="gneE20" to="gneE11" type="passenger"/>
    <trip id="veh311" depart="1244.00" from="-gneE35" to="-gneE20" type="passenger"/>
    <trip id="veh312" depart="1248.00" from="gneE15" to="gneE49" type="passenger"/>
    <trip id="veh313" depart="1252.00" from="-gneE55" to="gneE10" type="passenger"/>
    <trip id="veh314" depart="1256.00" from="gneE52" to="-gneE24" type="passenger"/>
    <trip id="veh315" depart="1260.00" from="-gneE46" to="gneE48" type="passenger"/>
    <trip id="veh316" depart="1264.00" from="-gneE14" to="-gneE11" type="passenger"/>
    <trip id="veh317" depart="1268.00" from="gneE18" to="-gneE55" type="passenger"/>
    <trip id="veh318" depart="1272.00" from="gneE49" to="gneE13" type="passenger"/>
    <trip id="veh319" depart="1276.00" from="-gneE32" to="gneE18" type="passenger"/>
    <trip id="veh320" depart="1280.00" from="-gneE52" to="gneE16" type="passenger"/>
    <trip id="veh321" depart="1284.00" from="-gneE20" to="-gneE13" type="passenger"/>
    <trip id="veh322" depart="1288.00" from="gneE50" to="gneE43" type="passenger"/>
    <trip id="veh323" depart="1292.00" from="-gneE18" to="-gneE15" type="passenger"/>
    <trip id="veh324" depart="1296.00" from="gneE35" to="gneE22" type="passenger"/>
    <trip id="veh325" depart="1300.00" from="-gneE52" to="gneE43" type="passenger"/>
    <trip id="veh326" depart="1304.00" from="gneE35" to="gneE35" type="passenger"/>
    <trip id="veh327" depart="1308.00" from="gneE50" to="gneE34" type="passenger"/>
    <trip id="veh328" depart="1312.00" from="-gneE10" to="gneE17" type="passenger"/>
    <trip id="veh329" depart="1316.00" from="-gneE15" to="gneE49" type="passenger"/>
    <trip id="veh330" depart="1320.00" from="gneE35" to="gneE15" type="passenger"/>
    <trip id="veh331" depart="1324.00" from="-gneE51" to="gneE20" type="passenger"/>
    <trip id="veh332" depart="1328.00" from="-gneE34" to="gneE20" type="passenger"/>
    <trip id="veh333" depart="1332.00" from="gneE52" to="-gneE12" type="passenger"/>
    <trip id="veh334" depart="1336.00" from="-gneE49" to="gneE34" type="passenger"/>
    <trip id="veh335" depart="1340.00" from="-gneE19" to="-gneE43" type="passenger"/>
    <trip id="veh336" depart="1344.00" from="gneE35" to="gneE13" type="passenger"/>
    <trip id="veh337" depart="1348.00" from="-gneE31" to="-gneE49" type="passenger"/>
    <trip id="veh338" depart="1352.00" from="-gneE46" to="gneE10" type="passenger"/>
    <trip id="veh339" depart="1356.00" from="gneE55" to="-gneE24" type="passenger"/>
    <trip id="veh340" depart="1360.00" from="-gneE35" to="gneE49" type="passenger"/>
    <trip id="veh341" depart="1364.00" from="-gneE55" to="gneE17" type="passenger"/>
    <trip id="veh342" depart="1368.00" from="gneE46" to="-gneE15" type="passenger"/>
    <trip id="veh343" depart="1372.00" from="-gneE19" to="-gneE17" type="passenger"/>
    <trip id="veh344" depart="1376.00" from="-gneE19" to="-gneE13" type="passenger"/>
    <trip id="veh345" depart="1380.00" from="-gneE23" to="gneE50" type="passenger"/>
    <trip id="veh346" depart="1384.00" from="gneE49" to="gneE20" type="passenger"/>
    <trip id="veh347" depart="1388.00" from="gneE10" to="gneE24" type="passenger"/>
    <trip id="veh348" depart="1392.00" from="gneE52" to="-gneE32" type="passenger"/>