<?xml version="1.0" encoding="UTF-8"?>

<!-- generated on 10/22/17 15:04:07 by SUMO polyconvert Version 0.31.0
<?xml version="1.0" encoding="UTF-8"?>

<configuration xmlns:xsi="http://www.w3.org/2001/XMLSchema-instance" xsi:noNamespaceSchemaLocation="http://sumo.dlr.de/xsd/polyconvertConfiguration.xsd">

    <input>
        <net-file value="ingolstadt_hbf.net.xml"/>
        <osm-files value="map.osm"/>
    </input>

    <output>
        <output-file value="ingolstadt_hbf.poly.xml"/>
    </output>

    <processing>
        <poi-layer-offset value="5"/>
    </processing>

</configuration>
-->

<additional xmlns:xsi="http://www.w3.org/2001/XMLSchema-instance" xsi:noNamespaceSchemaLocation="http://sumo.dlr.de/xsd/additional_file.xsd">
    <location netOffset="-678632.78,-5400218.67" convBoundary="-2316.61,-0.00,888.25,2802.60" origBoundary="11.398202,48.729118,11.441399,48.754575" projParameter="+proj=utm +zone=32 +ellps=WGS84 +datum=WGS84 +units=m +no_defs"/>

    <poly id="113519212" type="building" color="255,230,230" fill="1" layer="-1.00" shape="279.38,1621.81 290.95,1626.50 300.02,1604.21 288.45,1599.54 283.77,1611.04 279.38,1621.81"/>
    <poly id="136437422" type="building" color="255,230,230" fill="1" layer="-1.00" shape="409.18,1741.82 392.45,1737.43 395.69,1725.09 412.42,1729.47 409.18,1741.82"/>
    <poly id="136437429" type="building" color="255,230,230" fill="1" layer="-1.00" shape="428.03,1733.55 412.42,1729.47 409.18,1741.82 405.39,1755.55 401.67,1769.68 417.28,1773.76 428.03,1733.55"/>
    <poly id="159961987" type="building" color="255,230,230" fill="1" layer="-1.00" shape="141.11,1716.07 147.32,1656.26 132.67,1654.74 127.73,1702.33 100.57,1702.73 91.28,1699.18 73.28,1686.05 64.44,1698.08 84.39,1712.65 95.23,1716.76 141.11,1716.07"/>
    <poly id="159961991" type="building" color="255,230,230" fill="1" layer="-1.00" shape="88.80,1626.16 147.83,1640.20 151.77,1623.71 92.74,1609.69 88.80,1626.16"/>
    <poly id="166675985" type="building" color="255,230,230" fill="1" layer="-1.00" shape="297.02,1581.19 295.87,1584.05 291.44,1595.12 301.59,1599.16 307.17,1585.23 297.02,1581.19"/>
    <poly id="172523698" type="building" color="255,230,230" fill="1" layer="-1.00" shape="163.12,1707.19 163.53,1695.29 175.42,1695.70 175.02,1707.59 163.12,1707.19"/>
    <poly id="172523700" type="building" color="255,230,230" fill="1" layer="-1.00" shape="200.23,1732.94 200.35,1723.15 211.12,1723.28 211.00,1733.08 200.23,1732.94"/>
    <poly id="172523701" type="building" color="255,230,230" fill="1" layer="-1.00" shape="201.40,1706.78 201.55,1694.69 211.48,1694.82 211.33,1706.91 201.40,1706.78"/>
    <poly id="172523709" type="building" color="255,230,230" fill="1" layer="-1.00" shape="198.70,1723.13 198.91,1706.75 201.40,1706.78 211.33,1706.91 211.12,1723.28 200.35,1723.15 198.70,1723.13"/>
    <poly id="172523710" type="building" color="255,230,230" fill="1" layer="-1.00" shape="161.87,1691.66 162.13,1680.99 172.48,1681.24 172.34,1687.41 173.69,1687.44 173.58,1691.94 161.87,1691.66"/>
    <poly id="172523711" type="building" color="255,230,230" fill="1" layer="-1.00" shape="155.82,1757.00 156.18,1732.45 159.74,1732.50 160.03,1712.74 172.96,1712.93 172.67,1732.47 170.28,1732.44 169.92,1757.20 155.82,1757.00"/>
    <poly id="200949193" type="building" color="255,230,230" fill="1" layer="-1.00" shape="165.75,1552.13 166.12,1550.26 145.84,1546.25 146.46,1542.91 124.08,1538.81 122.80,1545.78 143.66,1549.60 143.20,1551.93 163.47,1555.94 163.15,1557.60 173.24,1559.57 172.83,1561.40 184.76,1564.03 185.86,1559.07 174.89,1556.65 175.41,1554.03 165.75,1552.13"/>
    <poly id="200949195" type="building" color="255,230,230" fill="1" layer="-1.00" shape="135.17,1643.79 146.76,1646.48 148.21,1640.29 136.62,1637.59 135.17,1643.79"/>
    <poly id="200949201" type="building" color="255,230,230" fill="1" layer="-1.00" shape="247.79,1617.38 251.91,1598.95 244.97,1597.40 240.86,1615.84 247.79,1617.38"/>
    <poly id="200949235" type="building" color="255,230,230" fill="1" layer="-1.00" shape="167.06,1655.81 184.42,1657.73 187.71,1628.20 179.48,1627.29 170.34,1626.27 167.06,1655.81"/>
    <poly id="200949279" type="building" color="255,230,230" fill="1" layer="-1.00" shape="225.42,1562.79 235.39,1563.38 235.83,1556.09 238.47,1556.24 238.55,1554.92 238.63,1553.54 235.96,1553.38 236.52,1543.96 226.59,1543.38 225.42,1562.79"/>
    <poly id="200949318" type="building" color="255,230,230" fill="1" layer="-1.00" shape="187.23,1654.85 187.23,1656.72 189.78,1656.73 189.78,1654.85 187.23,1654.85"/>
    <poly id="200949320" type="building" color="255,230,230" fill="1" layer="-1.00" shape="209.70,1561.51 214.88,1562.66 221.18,1534.68 216.01,1533.53 209.70,1561.51"/>
    <poly id="200949357" type="building" color="255,230,230" fill="1" layer="-1.00" shape="223.49,1613.73 228.98,1594.86 218.76,1590.37 216.49,1596.58 204.31,1593.82 201.33,1606.94 223.49,1613.73"/>
    <poly id="200949360" type="building" color="255,230,230" fill="1" layer="-1.00" shape="224.81,1706.97 244.46,1707.46 245.54,1673.65 230.99,1673.18 230.66,1683.54 224.78,1683.54 224.81,1706.97"/>
    <poly id="200949362" type="building" color="255,230,230" fill="1" layer="-1.00" shape="198.86,1584.42 189.99,1582.86 189.09,1587.99 182.00,1586.80 179.12,1603.90 194.76,1606.51 198.86,1584.42"/>
    <poly id="200949364" type="building" color="255,230,230" fill="1" layer="-1.00" shape="264.31,1705.73 276.41,1706.01 277.34,1679.15 277.50,1674.62 261.76,1673.72 261.20,1683.40 264.82,1683.61 264.31,1705.73"/>
    <poly id="200949367" type="building" color="255,230,230" fill="1" layer="-1.00" shape="193.47,1630.22 192.03,1647.09 203.10,1647.44 204.12,1638.10 206.19,1638.37 206.34,1631.53 193.47,1630.22"/>
    <poly id="200949376" type="building" color="255,230,230" fill="1" layer="-1.00" shape="249.65,1578.49 291.44,1595.12 295.87,1584.05 286.19,1580.21 284.36,1584.78 252.25,1572.00 249.65,1578.49"/>
    <poly id="200949376#1" type="shop" color="237,199,255" fill="1" layer="-1.00" shape="249.65,1578.49 291.44,1595.12 295.87,1584.05 286.19,1580.21 284.36,1584.78 252.25,1572.00 249.65,1578.49"/>
    <poly id="200949379" type="building" color="255,230,230" fill="1" layer="-1.00" shape="211.62,1683.47 212.96,1683.43 213.19,1673.40 197.05,1673.11 196.84,1683.14 201.70,1683.25 201.55,1694.69 211.48,1694.82 211.62,1683.47"/>
    <poly id="200949382" type="building" color="255,230,230" fill="1" layer="-1.00" shape="264.12,1607.80 270.95,1610.47 275.63,1598.61 259.96,1592.46 257.57,1598.53 266.41,1601.99 264.12,1607.80"/>
    <poly id="200949384" type="building" color="255,230,230" fill="1" layer="-1.00" shape="265.74,1643.74 265.74,1641.73 254.94,1641.68 254.86,1659.28 264.06,1659.32 264.02,1661.39 276.32,1661.64 276.67,1643.96 265.74,1643.74"/>
    <poly id="200949393" type="building" color="255,230,230" fill="1" layer="-1.00" shape="142.68,1580.54 138.06,1579.72 135.45,1594.30 157.22,1598.33 160.90,1576.01 155.74,1575.15 156.64,1569.45 161.93,1570.53 164.14,1559.81 138.40,1554.54 136.19,1565.26 144.87,1567.04 142.68,1580.54"/>
    <poly id="200949393#1" type="shop" color="237,199,255" fill="1" layer="-1.00" shape="142.68,1580.54 138.06,1579.72 135.45,1594.30 157.22,1598.33 160.90,1576.01 155.74,1575.15 156.64,1569.45 161.93,1570.53 164.14,1559.81 138.40,1554.54 136.19,1565.26 144.87,1567.04 142.68,1580.54"/>
    <poly id="200949396" type="amenity" color="237,199,199" fill="1" layer="-1.00" shape="260.59,1729.18 260.45,1733.56 267.66,1733.79 267.80,1729.28 275.66,1729.38 275.85,1715.00 252.51,1714.68 252.31,1729.06 260.59,1729.18"/>
    <poly id="200949396#1" type="building" color="255,230,230" fill="1" layer="-1.00" shape="260.59,1729.18 260.45,1733.56 267.66,1733.79 267.80,1729.28 275.66,1729.38 275.85,1715.00 252.51,1714.68 252.31,1729.06 260.59,1729.18"/>
    <poly id="200949435" type="building" color="255,230,230" fill="1" layer="-1.00" shape="277.04,1612.53 270.95,1610.47 269.22,1615.15 260.78,1613.17 258.51,1622.78 273.54,1625.86 275.58,1615.98 277.04,1612.53"/>
    <poly id="200949437" type="parking" color="184,184,179" fill="1" layer="-1.00" shape="322.57,1628.56 331.93,1597.53 335.69,1586.25 412.91,1608.05 415.50,1600.08 470.92,1616.41 483.10,1619.76 478.31,1635.62 432.92,1622.39 430.40,1631.00 429.65,1633.54 376.04,1617.91 368.79,1642.68 322.57,1628.56"/>
    <poly id="200949440" type="building" color="255,230,230" fill="1" layer="-1.00" shape="206.11,1648.11 196.54,1648.18 196.62,1658.47 205.92,1658.40 205.90,1659.81 240.26,1660.46 240.38,1654.18 254.56,1654.63 254.89,1644.16 240.57,1643.70 240.65,1639.35 232.76,1639.19 232.79,1635.51 206.83,1635.28 206.80,1638.71 206.29,1638.69 206.11,1648.11"/>
    <poly id="200949445" type="building" color="255,230,230" fill="1" layer="-1.00" shape="215.15,1652.17 231.65,1652.54 231.76,1647.76 215.25,1647.38 215.15,1652.17"/>
    <poly id="200949451" type="parking" color="184,184,179" fill="1" layer="-1.00" shape="170.50,1601.29 176.35,1570.99 162.85,1568.23 157.22,1598.33 163.93,1599.82 170.50,1601.29"/>
    <poly id="200949453" type="parking" color="184,184,179" fill="1" layer="-1.00" shape="78.22,1635.66 150.50,1653.22 150.97,1650.74 151.77,1646.49 146.76,1646.48 135.17,1643.79 136.62,1637.59 88.80,1626.16 80.93,1623.90 78.22,1635.66"/>
    <poly id="200955470" type="building" color="255,230,230" fill="1" layer="-1.00" shape="409.61,1723.28 411.88,1715.94 406.43,1714.26 404.15,1721.60 409.61,1723.28"/>
    <poly id="202956850" type="building" color="255,230,230" fill="1" layer="-1.00" shape="415.42,1572.83 412.88,1581.65 416.17,1582.60 418.72,1573.77 415.42,1572.83"/>
    <poly id="203033941" type="building" color="255,230,230" fill="1" layer="-1.00" shape="229.25,1566.45 234.52,1567.66 235.15,1564.97 229.89,1563.76 229.25,1566.45"/>
    <poly id="207091122" type="building" color="255,230,230" fill="1" layer="-1.00" shape="307.17,1585.23 297.02,1581.19 302.66,1567.25 312.78,1571.29 307.17,1585.23"/>
    <poly id="207091123" type="building" color="255,230,230" fill="1" layer="-1.00" shape="430.40,1631.00 376.78,1615.39 376.04,1617.91 429.65,1633.54 430.40,1631.00"/>
    <poly id="207091125" type="building" color="255,230,230" fill="1" layer="-1.00" shape="309.66,1554.21 304.07,1551.97 300.99,1559.61 305.08,1561.24 306.59,1561.84 309.66,1554.21"/>
    <poly id="207091126" type="building" color="255,230,230" fill="1" layer="-1.00" shape="312.78,1571.29 302.66,1567.25 305.08,1561.24 306.59,1561.84 309.66,1554.21 318.27,1557.66 312.78,1571.29"/>
    <poly id="213530803" type="parking" color="184,184,179" fill="1" layer="-1.00" shape="425.63,1666.79 430.87,1662.14 457.82,1670.03 452.58,1674.42 425.63,1666.79"/>
    <poly id="32599288" type="residential" color="235,235,227" fill="1" layer="-3.00" shape="-989.49,575.49 -988.84,586.68 -991.97,606.39 -995.92,623.48 -1001.39,640.24 -1014.49,665.80 -1025.61,690.55 -1001.60,701.24 -982.68,693.40 -774.84,798.94 -872.78,953.44 -807.51,999.58 -664.30,849.54 -254.54,1009.84 -223.88,1020.36 -219.54,1005.40 -199.65,886.16 -244.72,876.87 -216.47,787.76 -211.38,742.17 -216.69,627.43 -223.20,537.67 -231.42,491.41 -236.36,458.05 -213.95,457.85 -63.48,488.16 -15.32,499.72 18.52,491.45 35.75,496.63 148.93,568.07 162.29,566.00 186.52,542.63 201.62,535.14 221.19,531.58 239.94,535.61 269.98,541.86 291.93,553.12 299.57,552.66 306.04,548.51 332.20,501.14 453.45,471.22 594.01,584.40 649.78,616.61 656.53,698.38 676.65,723.41 658.43,767.02 637.72,747.45 606.32,736.04 556.74,729.49 507.81,725.09 458.70,737.80 480.30,820.40 445.76,830.99 496.70,861.93 476.28,900.05 575.84,956.93 459.76,1225.37 347.22,1180.63 345.92,1256.91 302.86,1241.52 303.09,1299.11 412.22,1337.60 365.12,1447.01 290.69,1631.38 276.68,1665.07 273.41,1721.48 274.29,1776.98 279.55,1958.96 260.08,1959.78 270.55,1991.14 256.28,2035.03 265.05,2051.86 237.21,2164.64 214.60,2238.31 193.68,2302.51 184.28,2340.35 171.06,2382.40 148.60,2434.67 2.69,2494.84 -95.06,2497.02 -134.77,2492.68 -188.45,2489.82 -192.88,2548.78 -160.23,2552.62 -133.07,2555.18 -122.02,2552.78 -114.57,2561.82 -103.20,2570.65 -90.32,2579.84 -74.48,2590.88 -65.08,2600.38 -59.22,2617.83 -59.28,2659.55 -118.20,2658.62 -120.24,2701.15 -119.96,2733.67 -111.43,2741.87 -111.21,2766.44 -56.11,2767.02 -54.70,2798.74 -59.90,2802.60 -121.90,2799.01 -135.00,2786.10 -164.10,2734.11 -200.56,2657.54 -219.25,2618.34 -263.30,2580.77 -314.63,2545.32 -354.34,2523.60 -398.60,2510.96 -445.71,2509.21 -548.25,2538.48 -702.00,2591.65 -710.75,2573.24 -721.56,2570.70 -756.37,2552.77 -785.07,2530.95 -828.82,2477.19 -932.39,2313.39 -924.39,2301.58 -983.23,2242.52 -1078.42,2102.94 -1063.58,2081.84 -1162.77,1982.68 -1151.45,1964.25 -1225.91,1902.06 -1287.38,1833.59 -1355.22,1742.83 -1395.47,1686.84 -1434.78,1637.73 -1524.64,1564.65 -1549.22,1532.50 -1594.12,1463.03 -1629.94,1490.93 -1748.66,1385.13 -1783.09,1360.78 -1897.04,1296.46 -2028.76,1231.15 -2316.61,1076.29 -2150.26,890.68 -2168.78,837.19 -2099.65,807.89 -2081.59,836.16 -2019.49,802.28 -1945.06,754.74 -1788.10,693.45 -1807.72,610.09 -1627.97,577.62 -1522.84,574.53 -1524.68,600.69 -1479.67,610.71 -1498.21,845.78 -1391.18,844.41 -1340.40,853.71 -1204.60,870.97 -1199.04,794.01 -1198.93,730.44 -1212.29,664.15 -1083.67,617.87 -1083.29,585.90 -1060.28,579.40 -989.49,575.49"/>
    <poly id="39444743" type="building" color="255,230,230" fill="1" layer="-1.00" shape="299.76,1747.54 301.53,1747.58 311.37,1747.71 310.97,1697.20 322.23,1658.02 322.77,1656.40 310.96,1653.00 300.82,1690.69 299.76,1747.54"/>
    <poly id="55686313" type="building" color="255,230,230" fill="1" layer="-1.00" shape="326.51,1669.98 364.86,1680.84 368.27,1668.90 329.92,1658.04 329.29,1660.23 326.51,1669.98"/>
    <poly id="55686317" type="building" color="255,230,230" fill="1" layer="-1.00" shape="423.55,1586.90 472.53,1601.25 475.89,1589.82 426.93,1575.46 423.55,1586.90"/>
    <poly id="55686318" type="building" color="255,230,230" fill="1" layer="-1.00" shape="445.78,1568.16 432.37,1564.23 434.93,1555.56 448.34,1559.49 445.78,1568.16"/>
    <poly id="55686322" type="building" color="255,230,230" fill="1" layer="-1.00" shape="385.12,1694.95 372.61,1691.15 379.16,1669.73 391.66,1673.53 385.12,1694.95"/>
    <poly id="55686323" type="building" color="255,230,230" fill="1" layer="-1.00" shape="368.79,1642.68 376.04,1617.91 429.65,1633.54 430.40,1631.00 432.92,1622.39 478.31,1635.62 472.65,1654.97 474.24,1655.43 470.73,1667.42 423.72,1653.73 422.45,1658.05 383.45,1646.69 382.87,1648.65 375.09,1646.38 375.60,1644.67 368.79,1642.68"/>
    <poly id="55686325" type="building" color="255,230,230" fill="1" layer="-1.00" shape="465.53,1651.67 439.23,1644.05 442.18,1633.93 468.48,1641.55 465.53,1651.67"/>
    <poly id="55686334" type="building" color="255,230,230" fill="1" layer="-1.00" shape="410.28,1679.29 447.62,1691.64 442.69,1706.45 405.36,1694.10 410.28,1679.29"/>
    <poly id="55693699" type="residential" color="235,235,227" fill="1" layer="-3.00" shape="473.40,1241.54 408.81,1399.02 352.30,1537.56 340.32,1566.85 335.26,1585.85 309.09,1654.77 299.31,1690.66 297.18,1749.00 300.80,1816.47 411.43,1848.01 421.09,1816.28 431.37,1780.22 426.77,1772.40 448.82,1691.03 465.26,1674.88 470.01,1668.97 493.45,1594.19 503.31,1585.39 530.96,1497.19 546.92,1444.73 565.92,1400.70 589.57,1333.69 592.42,1306.71 584.67,1289.08 473.40,1241.54"/>
    <poly id="83808291" type="landuse" color="194,194,130" fill="1" layer="-3.00" shape="400.54,1704.07 365.33,1692.82 359.33,1709.44 322.00,1698.25 319.22,1707.63 318.82,1742.17 319.40,1781.99 336.15,1785.88 334.25,1804.19 365.14,1813.54 374.51,1769.57 382.23,1769.51 394.70,1724.04 396.02,1719.03 400.54,1704.07"/>
	<poi id="1286927292" type="shop" color="237,199,255" layer="4.00" x="289.14" y="1622.88"/>
    <poi id="1775114015" type="amenity" color="237,199,199" layer="4.00" x="246.95" y="1644.41"/>
    <poi id="1775114041" type="shop" color="237,199,255" layer="4.00" x="146.96" y="1623.96"/>
    <poi id="2109052517" type="shop" color="237,199,255" layer="4.00" x="218.62" y="1610.67"/>
    <poi id="2109052518" type="shop" color="237,199,255" layer="4.00" x="190.73" y="1606.39"/>
    <poi id="2109052842" type="shop" color="237,199,255" layer="4.00" x="300.25" y="1595.58"/>
    <poi id="2109052903" type="shop" color="237,199,255" layer="4.00" x="277.66" y="1682.12"/>
    <poi id="2109052915" type="leisure" color="207,245,201" layer="3.00" x="182.63" y="1627.39"/>
    <poi id="2109053293" type="amenity" color="237,199,199" layer="4.00" x="182.51" y="1604.22"/>
    <poi id="2109054389" type="shop" color="237,199,255" layer="4.00" x="225.32" y="1660.30"/>
    <poi id="2109054395" type="shop" color="237,199,255" layer="4.00" x="275.65" y="1698.23"/>
    <poi id="2129976626" type="shop" color="237,199,255" layer="4.00" x="270.78" y="1645.00"/>
    <poi id="2129977229" type="shop" color="237,199,255" layer="4.00" x="303.66" y="1587.76"/>
    <poi id="2129977355" type="shop" color="237,199,255" layer="4.00" x="308.46" y="1576.35"/>
    <poi id="2129977357" type="amenity" color="237,199,199" layer="4.00" x="277.34" y="1679.15"/>
    <poi id="310168792" type="amenity" color="237,199,199" layer="4.00" x="441.34" y="1649.50"/>
    <poi id="699711141" type="historic" color="128,255,128" layer="4.00" x="444.81" y="1715.61"/>
    <poi id="699711141#1" type="tourism" color="207,245,201" layer="3.00" x="444.81" y="1715.61"/>
    <poi id="699711206" type="amenity" color="237,199,199" layer="4.00" x="423.72" y="1653.73"/>
</additional>
