<?xml version="1.0" encoding="UTF-8"?>

<!-- generated on 10/22/17 15:01:52 by SUMO netconvert Version 0.31.0
<?xml version="1.0" encoding="UTF-8"?>

<configuration xmlns:xsi="http://www.w3.org/2001/XMLSchema-instance" xsi:noNamespaceSchemaLocation="http://sumo.dlr.de/xsd/netconvertConfiguration.xsd">

    <input>
        <osm-files value="map.osm"/>
    </input>

    <output>
        <output-file value="ingolstadt_hbf.net.xml"/>
    </output>

    <projection>
        <proj.utm value="true"/>
    </projection>

</configuration>
-->

<net version="0.27" xmlns:xsi="http://www.w3.org/2001/XMLSchema-instance" xsi:noNamespaceSchemaLocation="http://sumo.dlr.de/xsd/net_file.xsd">

    <location netOffset="-678632.78,-5400218.67" convBoundary="0.00,0.00,888.25,2792.87" origBoundary="11.429894,48.729118,11.441399,48.754459" projParameter="+proj=utm +zone=32 +ellps=WGS84 +datum=WGS84 +units=m +no_defs"/>

    <type id="highway.bridleway" priority="1" numLanes="1" speed="2.78" allow="pedestrian" oneway="1" width="2.00"/>
    <type id="highway.bus_guideway" priority="1" numLanes="1" speed="8.33" allow="bus" oneway="1"/>
    <type id="highway.cycleway" priority="1" numLanes="1" speed="5.56" allow="bicycle" oneway="0" width="1.00"/>
    <type id="highway.footway" priority="1" numLanes="1" speed="2.78" allow="pedestrian" oneway="1" width="2.00"/>
    <type id="highway.ford" priority="1" numLanes="1" speed="2.78" allow="army" oneway="0"/>
    <type id="highway.living_street" priority="3" numLanes="1" speed="2.78" disallow="tram rail_urban rail rail_electric ship" oneway="0"/>
    <type id="highway.motorway" priority="13" numLanes="2" speed="44.44" allow="private emergency authority army vip passenger hov taxi bus coach delivery truck trailer motorcycle evehicle custom1 custom2" oneway="1"/>
    <type id="highway.motorway_link" priority="12" numLanes="1" speed="22.22" allow="private emergency authority army vip passenger hov taxi bus coach delivery truck trailer motorcycle evehicle custom1 custom2" oneway="1"/>
    <type id="highway.path" priority="1" numLanes="1" speed="2.78" allow="bicycle pedestrian" oneway="1" width="2.00"/>
    <type id="highway.pedestrian" priority="1" numLanes="1" speed="2.78" allow="pedestrian" oneway="1" width="2.00"/>
    <type id="highway.primary" priority="9" numLanes="2" speed="27.78" disallow="tram rail_urban rail rail_electric ship" oneway="0"/>
    <type id="highway.primary_link" priority="8" numLanes="1" speed="22.22" disallow="tram rail_urban rail rail_electric ship" oneway="0"/>
    <type id="highway.raceway" priority="14" numLanes="2" speed="83.33" allow="vip" oneway="0"/>
    <type id="highway.residential" priority="4" numLanes="1" speed="13.89" disallow="tram rail_urban rail rail_electric ship" oneway="0"/>
    <type id="highway.secondary" priority="7" numLanes="2" speed="27.78" disallow="tram rail_urban rail rail_electric ship" oneway="0"/>
    <type id="highway.secondary_link" priority="6" numLanes="1" speed="22.22" disallow="tram rail_urban rail rail_electric ship" oneway="0"/>
    <type id="highway.service" priority="2" numLanes="1" speed="5.56" allow="delivery bicycle pedestrian" oneway="0"/>
    <type id="highway.services" priority="1" numLanes="1" speed="8.33" disallow="tram rail_urban rail rail_electric ship" oneway="0"/>
    <type id="highway.stairs" priority="1" numLanes="1" speed="1.39" allow="pedestrian" oneway="1" width="2.00"/>
    <type id="highway.step" priority="1" numLanes="1" speed="1.39" allow="pedestrian" oneway="1" width="2.00"/>
    <type id="highway.steps" priority="1" numLanes="1" speed="1.39" allow="pedestrian" oneway="1" width="2.00"/>
    <type id="highway.tertiary" priority="6" numLanes="1" speed="22.22" disallow="tram rail_urban rail rail_electric ship" oneway="0"/>
    <type id="highway.tertiary_link" priority="5" numLanes="1" speed="22.22" disallow="tram rail_urban rail rail_electric ship" oneway="0"/>
    <type id="highway.track" priority="1" numLanes="1" speed="5.56" disallow="tram rail_urban rail rail_electric ship" oneway="0"/>
    <type id="highway.trunk" priority="11" numLanes="2" speed="27.78" disallow="tram rail_urban rail rail_electric bicycle pedestrian ship" oneway="0"/>
    <type id="highway.trunk_link" priority="10" numLanes="1" speed="22.22" disallow="tram rail_urban rail rail_electric bicycle pedestrian ship" oneway="0"/>
    <type id="highway.unclassified" priority="5" numLanes="1" speed="13.89" disallow="tram rail_urban rail rail_electric ship" oneway="0"/>
    <type id="highway.unsurfaced" priority="1" numLanes="1" speed="8.33" disallow="tram rail_urban rail rail_electric ship" oneway="0"/>
    <type id="railway.light_rail" priority="15" numLanes="1" speed="27.78" allow="rail_urban" oneway="1"/>
    <type id="railway.preserved" priority="15" numLanes="1" speed="27.78" allow="rail" oneway="1"/>
    <type id="railway.rail" priority="15" numLanes="1" speed="83.33" allow="rail rail_electric" oneway="1"/>
    <type id="railway.subway" priority="15" numLanes="1" speed="27.78" allow="rail_urban" oneway="1"/>
    <type id="railway.tram" priority="15" numLanes="1" speed="13.89" allow="tram" oneway="1"/>

    <edge id=":1515873749_0" function="internal">
        <lane id=":1515873749_0_0" index="0" allow="delivery bicycle pedestrian" speed="5.56" length="4.82" shape="324.80,1690.44 323.81,1689.34 323.62,1688.43 324.23,1687.74 325.63,1687.25"/>
    </edge>
    <edge id=":1795399122_0" function="internal">
        <lane id=":1795399122_0_0" index="0" allow="bicycle pedestrian" speed="2.78" length="4.13" width="2.00" shape="304.93,1652.52 306.07,1652.62 307.01,1652.37 307.74,1651.78 308.27,1650.85"/>
    </edge>
    <edge id=":1795399122_1" function="internal">
        <lane id=":1795399122_1_0" index="0" allow="bicycle pedestrian" speed="2.78" length="4.92" width="2.00" shape="306.75,1655.52 307.14,1654.12 307.43,1653.16 307.75,1652.22 308.27,1650.85"/>
    </edge>
    <edge id=":1852696865_0" function="internal">
        <lane id=":1852696865_0_0" index="0" allow="bicycle pedestrian" speed="2.78" length="0.28" width="2.00" shape="458.55,1221.74 458.66,1221.48"/>
    </edge>
    <edge id=":1852696866_0" function="internal">
        <lane id=":1852696866_0_0" index="0" allow="bicycle pedestrian" speed="2.78" length="0.10" width="2.00" shape="476.21,1229.94 476.21,1229.94"/>
    </edge>
    <edge id=":1852723938_0" function="internal">
        <lane id=":1852723938_0_0" index="0" allow="bicycle pedestrian" speed="8.33" length="3.02" width="2.00" shape="315.15,1625.27 314.80,1626.35 314.70,1627.17 314.84,1627.73 315.23,1628.02"/>
    </edge>
    <edge id=":1852723938_1" function="internal">
        <lane id=":1852723938_1_0" index="0" disallow="tram rail_urban rail rail_electric ship" speed="13.89" length="6.54" shape="315.15,1625.27 312.75,1631.39"/>
        <lane id=":1852723938_1_1" index="1" disallow="tram rail_urban rail rail_electric ship" speed="13.89" length="6.54" shape="312.07,1624.08 309.68,1630.17"/>
        <lane id=":1852723938_1_2" index="2" disallow="tram rail_urban rail rail_electric ship" speed="13.89" length="6.54" shape="308.99,1622.89 306.62,1628.95"/>
    </edge>
    <edge id=":1852723938_4" function="internal">
        <lane id=":1852723938_4_0" index="0" disallow="tram rail_urban rail rail_electric ship" speed="13.89" length="2.41" shape="308.99,1622.89 307.78,1623.75 306.86,1623.83"/>
    </edge>
    <edge id=":1852723938_13" function="internal">
        <lane id=":1852723938_13_0" index="0" speed="13.89" length="2.41" shape="306.86,1623.83 306.24,1623.15 305.91,1621.70"/>
    </edge>
    <edge id=":1852723938_5" function="internal">
        <lane id=":1852723938_5_0" index="0" disallow="tram rail_urban rail rail_electric ship" speed="8.33" length="5.52" shape="298.70,1623.28 300.00,1623.38 301.13,1622.95 302.07,1621.99 302.84,1620.51"/>
    </edge>
    <edge id=":1852723938_6" function="internal">
        <lane id=":1852723938_6_0" index="0" allow="bicycle pedestrian" speed="2.78" length="17.20" width="2.00" shape="298.70,1623.28 315.23,1628.02"/>
    </edge>
    <edge id=":1852723938_7" function="internal">
        <lane id=":1852723938_7_0" index="0" disallow="tram rail_urban rail rail_electric ship" speed="8.33" length="13.98" shape="298.70,1623.28 304.05,1624.91 307.67,1626.60 309.55,1628.36 309.68,1630.17"/>
    </edge>
    <edge id=":1852723938_8" function="internal">
        <lane id=":1852723938_8_0" index="0" disallow="tram rail_urban rail rail_electric ship" speed="8.33" length="10.69" shape="298.70,1623.28 302.65,1624.52 305.29,1625.88 306.61,1627.36 306.62,1628.95"/>
    </edge>
    <edge id=":1852723938_9" function="internal">
        <lane id=":1852723938_9_0" index="0" disallow="tram rail_urban rail rail_electric ship" speed="13.89" length="6.47" shape="300.48,1626.52 302.84,1620.51"/>
        <lane id=":1852723938_9_1" index="1" disallow="tram rail_urban rail rail_electric ship" speed="13.89" length="6.47" shape="303.55,1627.73 305.91,1621.70"/>
    </edge>
    <edge id=":1852723938_11" function="internal">
        <lane id=":1852723938_11_0" index="0" allow="bicycle pedestrian" speed="8.33" length="2.77" width="2.00" shape="303.55,1627.73 304.72,1626.63 305.87,1626.47"/>
    </edge>
    <edge id=":1852723938_12" function="internal">
        <lane id=":1852723938_12_0" index="0" disallow="tram rail_urban rail rail_electric ship" speed="13.89" length="2.41" shape="303.55,1627.73 304.77,1626.89 305.69,1626.81"/>
    </edge>
    <edge id=":1852723938_14" function="internal">
        <lane id=":1852723938_14_0" index="0" speed="8.33" length="9.57" width="2.00" shape="305.87,1626.47 307.06,1626.31 310.57,1626.77 315.23,1628.02"/>
    </edge>
    <edge id=":1852723938_15" function="internal">
        <lane id=":1852723938_15_0" index="0" speed="13.89" length="2.41" shape="305.69,1626.81 306.31,1627.50 306.62,1628.95"/>
    </edge>
    <edge id=":1852723941_0" function="internal">
        <lane id=":1852723941_0_0" index="0" disallow="tram rail_urban rail rail_electric ship" speed="13.89" length="4.61" shape="291.36,1638.81 286.83,1638.00"/>
    </edge>
    <edge id=":1852723941_1" function="internal">
        <lane id=":1852723941_1_0" index="0" allow="bicycle pedestrian" speed="8.33" length="2.16" width="2.00" shape="291.36,1638.81 290.66,1638.27 290.55,1637.00"/>
    </edge>
    <edge id=":1852723941_2" function="internal">
        <lane id=":1852723941_2_0" index="0" disallow="tram rail_urban rail rail_electric ship" speed="13.89" length="2.41" shape="291.36,1638.81 290.27,1637.80 289.99,1636.93"/>
    </edge>
    <edge id=":1852723941_9" function="internal">
        <lane id=":1852723941_9_0" index="0" speed="8.33" length="5.01" width="2.00" shape="290.55,1637.00 291.03,1634.99 292.09,1632.25"/>
    </edge>
    <edge id=":1852723941_10" function="internal">
        <lane id=":1852723941_10_0" index="0" speed="13.89" length="2.41" shape="289.99,1636.93 290.53,1636.17 291.88,1635.55"/>
    </edge>
    <edge id=":1852723941_3" function="internal">
        <lane id=":1852723941_3_0" index="0" allow="bicycle pedestrian" speed="8.33" length="5.78" width="2.00" shape="287.42,1634.75 288.96,1634.82 290.25,1634.43 291.29,1633.57 292.09,1632.25"/>
    </edge>
    <edge id=":1852723941_4" function="internal">
        <lane id=":1852723941_4_0" index="0" disallow="tram rail_urban rail rail_electric ship" speed="13.89" length="4.52" shape="287.42,1634.75 291.88,1635.55"/>
    </edge>
    <edge id=":1852723941_5" function="internal">
        <lane id=":1852723941_5_0" index="0" disallow="tram rail_urban rail rail_electric ship" speed="13.89" length="2.41" shape="287.42,1634.75 288.49,1635.79 288.75,1636.67"/>
    </edge>
    <edge id=":1852723941_11" function="internal">
        <lane id=":1852723941_11_0" index="0" speed="13.89" length="2.41" shape="288.75,1636.67 288.19,1637.41 286.83,1638.00"/>
    </edge>
    <edge id=":1852723941_6" function="internal">
        <lane id=":1852723941_6_0" index="0" disallow="tram rail_urban rail rail_electric ship" speed="8.33" length="4.65" shape="288.49,1641.58 288.77,1640.20 288.59,1639.14 287.94,1638.41 286.83,1638.00"/>
    </edge>
    <edge id=":1852723941_7" function="internal">
        <lane id=":1852723941_7_0" index="0" allow="bicycle pedestrian" speed="2.78" length="10.01" width="2.00" shape="288.49,1641.58 292.09,1632.25"/>
    </edge>
    <edge id=":1852723941_8" function="internal">
        <lane id=":1852723941_8_0" index="0" disallow="tram rail_urban rail rail_electric ship" speed="8.33" length="7.13" shape="288.49,1641.58 289.49,1638.86 290.39,1636.95 291.18,1635.84 291.88,1635.55"/>
    </edge>
    <edge id=":1852723942_0" function="internal">
        <lane id=":1852723942_0_0" index="0" allow="bicycle pedestrian" speed="8.33" length="4.67" width="2.00" shape="302.17,1649.12 301.92,1650.30 302.20,1651.23 303.01,1651.93 304.36,1652.40"/>
    </edge>
    <edge id=":1852723942_1" function="internal">
        <lane id=":1852723942_1_0" index="0" disallow="tram rail_urban rail rail_electric ship" speed="13.89" length="5.97" shape="302.17,1649.12 301.54,1650.71 301.13,1651.80 300.79,1652.92 300.37,1654.57"/>
        <lane id=":1852723942_1_1" index="1" disallow="tram rail_urban rail rail_electric ship" speed="13.89" length="5.97" shape="299.10,1647.91 298.42,1649.62 297.98,1650.80 297.62,1652.00 297.16,1653.78"/>
    </edge>
    <edge id=":1852723942_3" function="internal">
        <lane id=":1852723942_3_0" index="0" disallow="tram rail_urban rail rail_electric ship" speed="13.89" length="2.41" shape="299.10,1647.91 297.87,1648.75 296.96,1648.83"/>
    </edge>
    <edge id=":1852723942_12" function="internal">
        <lane id=":1852723942_12_0" index="0" speed="13.89" length="2.41" shape="296.96,1648.83 296.34,1648.15 296.03,1646.69"/>
    </edge>
    <edge id=":1852723942_4" function="internal">
        <lane id=":1852723942_4_0" index="0" disallow="tram rail_urban rail rail_electric ship" speed="8.33" length="5.26" shape="287.53,1648.81 288.26,1648.32 288.94,1646.96 289.51,1645.39 289.89,1644.26"/>
    </edge>
    <edge id=":1852723942_5" function="internal">
        <lane id=":1852723942_5_0" index="0" allow="bicycle pedestrian" speed="2.78" length="17.20" width="2.00" shape="287.53,1648.81 304.36,1652.40"/>
    </edge>
    <edge id=":1852723942_6" function="internal">
        <lane id=":1852723942_6_0" index="0" disallow="tram rail_urban rail rail_electric ship" speed="8.33" length="11.47" shape="287.53,1648.81 292.00,1649.94 295.10,1651.15 296.82,1652.43 297.16,1653.78"/>
    </edge>
    <edge id=":1852723942_7" function="internal">
        <lane id=":1852723942_7_0" index="0" disallow="tram rail_urban rail rail_electric ship" speed="13.89" length="7.09" shape="287.55,1651.42 288.10,1649.25 288.54,1647.78 289.07,1646.34 289.89,1644.26"/>
        <lane id=":1852723942_7_1" index="1" disallow="tram rail_urban rail rail_electric ship" speed="13.89" length="7.09" shape="290.76,1652.21 291.27,1650.17 291.69,1648.79 292.19,1647.43 292.96,1645.48"/>
        <lane id=":1852723942_7_2" index="2" disallow="tram rail_urban rail rail_electric ship" speed="13.89" length="7.09" shape="293.96,1652.99 294.45,1651.08 294.83,1649.79 295.30,1648.52 296.03,1646.69"/>
    </edge>
    <edge id=":1852723942_10" function="internal">
        <lane id=":1852723942_10_0" index="0" allow="bicycle pedestrian" speed="8.33" length="2.59" width="2.00" shape="293.96,1652.99 294.86,1651.95 296.05,1651.69"/>
    </edge>
    <edge id=":1852723942_11" function="internal">
        <lane id=":1852723942_11_0" index="0" disallow="tram rail_urban rail rail_electric ship" speed="13.89" length="2.41" shape="293.96,1652.99 295.06,1651.99 295.96,1651.78"/>
    </edge>
    <edge id=":1852723942_13" function="internal">
        <lane id=":1852723942_13_0" index="0" speed="8.33" length="8.40" width="2.00" shape="296.05,1651.69 296.89,1651.51 300.06,1651.65 304.36,1652.40"/>
    </edge>
    <edge id=":1852723942_14" function="internal">
        <lane id=":1852723942_14_0" index="0" speed="13.89" length="2.41" shape="295.96,1651.78 296.66,1652.38 297.16,1653.78"/>
    </edge>
    <edge id=":2109053212_0" function="internal">
        <lane id=":2109053212_0_0" index="0" allow="delivery bicycle pedestrian" speed="5.56" length="4.82" shape="168.52,1572.96 169.60,1571.94 170.50,1571.73 171.21,1572.32 171.73,1573.71"/>
    </edge>
    <edge id=":2109053358_0" function="internal">
        <lane id=":2109053358_0_0" index="0" allow="delivery bicycle pedestrian" speed="5.56" length="4.82" shape="82.78,1634.25 81.80,1633.13 81.61,1632.23 82.22,1631.54 83.63,1631.06"/>
    </edge>
    <edge id=":2109053419_0" function="internal">
        <lane id=":2109053419_0_0" index="0" disallow="tram rail_urban rail rail_electric ship" speed="8.33" length="9.60" shape="159.22,1647.18 158.38,1656.74"/>
    </edge>
    <edge id=":2109053419_1" function="internal">
        <lane id=":2109053419_1_0" index="0" allow="delivery bicycle pedestrian" speed="6.95" length="5.43" shape="159.22,1647.18 158.50,1650.26 157.09,1652.03"/>
    </edge>
    <edge id=":2109053419_2" function="internal">
        <lane id=":2109053419_2_0" index="0" disallow="tram rail_urban rail rail_electric ship" speed="8.33" length="2.41" shape="159.22,1647.18 158.29,1648.34 157.43,1648.68"/>
    </edge>
    <edge id=":2109053419_9" function="internal">
        <lane id=":2109053419_9_0" index="0" speed="6.95" length="5.81" shape="157.09,1652.03 156.97,1652.18 154.64,1652.96 151.50,1652.60"/>
    </edge>
    <edge id=":2109053419_10" function="internal">
        <lane id=":2109053419_10_0" index="0" speed="8.33" length="2.41" shape="157.43,1648.68 156.65,1648.20 155.93,1646.89"/>
    </edge>
    <edge id=":2109053419_3" function="internal">
        <lane id=":2109053419_3_0" index="0" disallow="tram rail_urban rail rail_electric ship" speed="6.95" length="5.22" shape="152.35,1649.41 153.80,1649.58 154.89,1649.22 155.60,1648.32 155.93,1646.89"/>
    </edge>
    <edge id=":2109053419_4" function="internal">
        <lane id=":2109053419_4_0" index="0" disallow="tram rail_urban rail rail_electric ship" speed="6.95" length="10.45" shape="152.35,1649.41 155.17,1650.52 157.12,1652.11 158.19,1654.18 158.38,1656.74"/>
    </edge>
    <edge id=":2109053419_5" function="internal">
        <lane id=":2109053419_5_0" index="0" allow="delivery bicycle pedestrian" speed="5.56" length="4.82" shape="152.35,1649.41 153.33,1650.52 153.52,1651.43 152.91,1652.12 151.50,1652.60"/>
    </edge>
    <edge id=":2109053419_6" function="internal">
        <lane id=":2109053419_6_0" index="0" allow="delivery bicycle pedestrian" speed="6.95" length="5.78" shape="155.09,1656.45 154.96,1655.15 154.32,1654.07 153.16,1653.22 151.50,1652.60"/>
    </edge>
    <edge id=":2109053419_7" function="internal">
        <lane id=":2109053419_7_0" index="0" disallow="tram rail_urban rail rail_electric ship" speed="8.33" length="9.60" shape="155.09,1656.45 155.93,1646.89"/>
    </edge>
    <edge id=":2109053419_8" function="internal">
        <lane id=":2109053419_8_0" index="0" disallow="tram rail_urban rail rail_electric ship" speed="8.33" length="2.41" shape="155.09,1656.45 156.02,1655.29 156.88,1654.95"/>
    </edge>
    <edge id=":2109053419_11" function="internal">
        <lane id=":2109053419_11_0" index="0" speed="8.33" length="2.41" shape="156.88,1654.95 157.67,1655.44 158.38,1656.74"/>
    </edge>
    <edge id=":2129977154_0" function="internal">
        <lane id=":2129977154_0_0" index="0" allow="delivery bicycle pedestrian" speed="5.56" length="4.82" shape="222.86,1534.90 223.84,1533.79 224.72,1533.49 225.48,1534.01 226.13,1535.35"/>
    </edge>
    <edge id=":2129977180_0" function="internal">
        <lane id=":2129977180_0_0" index="0" disallow="tram rail_urban rail rail_electric ship" speed="13.89" length="4.82" shape="329.61,1560.25 330.83,1559.40 331.75,1559.32 332.37,1560.00 332.69,1561.45"/>
    </edge>
    <edge id=":2129977184_0" function="internal">
        <lane id=":2129977184_0_0" index="0" allow="delivery bicycle pedestrian" speed="5.56" length="4.82" shape="203.36,1558.76 204.22,1557.55 205.06,1557.17 205.87,1557.60 206.66,1558.87"/>
    </edge>
    <edge id=":2129977186_0" function="internal">
        <lane id=":2129977186_0_0" index="0" allow="delivery bicycle pedestrian" speed="5.56" length="4.82" shape="222.36,1562.90 221.38,1564.01 220.51,1564.31 219.74,1563.79 219.09,1562.45"/>
    </edge>
    <edge id=":2129977206_0" function="internal">
        <lane id=":2129977206_0_0" index="0" disallow="tram rail_urban rail rail_electric ship" speed="13.89" length="4.98" shape="447.71,1573.81 442.95,1572.35"/>
    </edge>
    <edge id=":2129977213_0" function="internal">
        <lane id=":2129977213_0_0" index="0" disallow="tram rail_urban rail rail_electric ship" speed="13.89" length="6.54" shape="244.44,1571.12 242.32,1577.31"/>
    </edge>
    <edge id=":2129977213_1" function="internal">
        <lane id=":2129977213_1_0" index="0" allow="delivery bicycle pedestrian" speed="9.73" length="5.07" shape="244.44,1571.12 243.17,1573.56 241.38,1575.05"/>
    </edge>
    <edge id=":2129977213_2" function="internal">
        <lane id=":2129977213_2_0" index="0" disallow="tram rail_urban rail rail_electric ship" speed="13.89" length="2.41" shape="244.44,1571.12 243.26,1572.03 242.34,1572.15"/>
    </edge>
    <edge id=":2129977213_9" function="internal">
        <lane id=":2129977213_9_0" index="0" speed="9.73" length="5.27" shape="241.38,1575.05 239.06,1575.58 236.21,1575.16"/>
    </edge>
    <edge id=":2129977213_10" function="internal">
        <lane id=":2129977213_10_0" index="0" speed="13.89" length="2.41" shape="242.34,1572.15 241.69,1571.49 241.32,1570.05"/>
    </edge>
    <edge id=":2129977213_3" function="internal">
        <lane id=":2129977213_3_0" index="0" disallow="tram rail_urban rail rail_electric ship" speed="9.73" length="5.21" shape="237.12,1571.99 238.59,1572.21 239.78,1571.97 240.69,1571.25 241.32,1570.05"/>
    </edge>
    <edge id=":2129977213_4" function="internal">
        <lane id=":2129977213_4_0" index="0" disallow="tram rail_urban rail rail_electric ship" speed="9.73" length="8.37" shape="237.12,1571.99 239.84,1573.01 241.61,1574.24 242.44,1575.67 242.32,1577.31"/>
    </edge>
    <edge id=":2129977213_5" function="internal">
        <lane id=":2129977213_5_0" index="0" allow="delivery bicycle pedestrian" speed="5.56" length="4.82" shape="237.12,1571.99 238.08,1573.12 238.25,1574.03 237.62,1574.71 236.21,1575.16"/>
    </edge>
    <edge id=":2129977213_6" function="internal">
        <lane id=":2129977213_6_0" index="0" allow="delivery bicycle pedestrian" speed="9.73" length="3.43" shape="239.16,1576.34 238.97,1575.80 238.17,1575.50 237.12,1575.33 236.21,1575.16"/>
    </edge>
    <edge id=":2129977213_7" function="internal">
        <lane id=":2129977213_7_0" index="0" disallow="tram rail_urban rail rail_electric ship" speed="13.89" length="6.65" shape="239.16,1576.34 241.32,1570.05"/>
    </edge>
    <edge id=":2129977213_8" function="internal">
        <lane id=":2129977213_8_0" index="0" disallow="tram rail_urban rail rail_electric ship" speed="13.89" length="2.52" shape="239.16,1576.34 240.32,1575.40 241.23,1575.25 241.31,1575.33"/>
    </edge>
    <edge id=":2129977213_11" function="internal">
        <lane id=":2129977213_11_0" index="0" speed="13.89" length="2.30" shape="241.31,1575.33 241.89,1575.89 242.32,1577.31"/>
    </edge>
    <edge id=":2129977216_0" function="internal">
        <lane id=":2129977216_0_0" index="0" disallow="tram rail_urban rail rail_electric ship" speed="9.73" length="5.03" shape="243.98,1582.15 242.63,1581.85 241.52,1582.07 240.65,1582.79 240.02,1584.02"/>
    </edge>
    <edge id=":2129977216_1" function="internal">
        <lane id=":2129977216_1_0" index="0" disallow="tram rail_urban rail rail_electric ship" speed="9.73" length="8.26" shape="243.98,1582.15 241.41,1580.95 239.74,1579.62 238.97,1578.15 239.10,1576.53"/>
    </edge>
    <edge id=":2129977216_2" function="internal">
        <lane id=":2129977216_2_0" index="0" allow="delivery bicycle pedestrian" speed="5.56" length="4.82" shape="243.98,1582.15 243.11,1580.94 243.01,1580.02 243.69,1579.40 245.13,1579.05"/>
    </edge>
    <edge id=":2129977216_3" function="internal">
        <lane id=":2129977216_3_0" index="0" allow="delivery bicycle pedestrian" speed="9.73" length="3.50" shape="242.25,1577.50 242.43,1578.10 243.22,1578.50 244.24,1578.80 245.13,1579.05"/>
    </edge>
    <edge id=":2129977216_4" function="internal">
        <lane id=":2129977216_4_0" index="0" disallow="tram rail_urban rail rail_electric ship" speed="13.89" length="6.89" shape="242.25,1577.50 240.02,1584.02"/>
    </edge>
    <edge id=":2129977216_5" function="internal">
        <lane id=":2129977216_5_0" index="0" disallow="tram rail_urban rail rail_electric ship" speed="13.89" length="2.52" shape="242.25,1577.50 241.10,1578.44 240.19,1578.59 240.11,1578.52"/>
    </edge>
    <edge id=":2129977216_9" function="internal">
        <lane id=":2129977216_9_0" index="0" speed="13.89" length="2.30" shape="240.11,1578.52 239.52,1577.96 239.10,1576.53"/>
    </edge>
    <edge id=":2129977216_6" function="internal">
        <lane id=":2129977216_6_0" index="0" disallow="tram rail_urban rail rail_electric ship" speed="13.89" length="6.79" shape="236.90,1582.96 239.10,1576.53"/>
    </edge>
    <edge id=":2129977216_7" function="internal">
        <lane id=":2129977216_7_0" index="0" allow="delivery bicycle pedestrian" speed="9.73" length="5.23" shape="236.90,1582.96 238.21,1580.39 240.01,1578.89"/>
    </edge>
    <edge id=":2129977216_8" function="internal">
        <lane id=":2129977216_8_0" index="0" disallow="tram rail_urban rail rail_electric ship" speed="13.89" length="2.41" shape="236.90,1582.96 238.08,1582.05 238.99,1581.93"/>
    </edge>
    <edge id=":2129977216_10" function="internal">
        <lane id=":2129977216_10_0" index="0" speed="9.73" length="5.23" shape="240.01,1578.89 242.32,1578.44 245.13,1579.05"/>
    </edge>
    <edge id=":2129977216_11" function="internal">
        <lane id=":2129977216_11_0" index="0" speed="13.89" length="2.41" shape="238.99,1581.93 239.64,1582.59 240.02,1584.02"/>
    </edge>
    <edge id=":2129977252_0" function="internal">
        <lane id=":2129977252_0_0" index="0" disallow="tram rail_urban rail rail_electric ship" speed="13.89" length="9.59" shape="323.02,1604.79 319.59,1613.77"/>
        <lane id=":2129977252_0_1" index="1" disallow="tram rail_urban rail rail_electric ship" speed="13.89" length="9.59" shape="319.94,1603.62 316.51,1612.58"/>
        <lane id=":2129977252_0_2" index="2" disallow="tram rail_urban rail rail_electric ship" speed="13.89" length="9.59" shape="316.85,1602.46 313.44,1611.39"/>
    </edge>
    <edge id=":2129977252_3" function="internal">
        <lane id=":2129977252_3_0" index="0" allow="delivery bicycle pedestrian" speed="9.72" length="4.63" shape="316.85,1602.46 315.34,1604.87 313.78,1605.73"/>
    </edge>
    <edge id=":2129977252_4" function="internal">
        <lane id=":2129977252_4_0" index="0" disallow="tram rail_urban rail rail_electric ship" speed="13.89" length="2.41" shape="316.85,1602.46 315.64,1603.33 314.72,1603.42"/>
    </edge>
    <edge id=":2129977252_13" function="internal">
        <lane id=":2129977252_13_0" index="0" speed="9.72" length="7.86" shape="313.78,1605.73 313.05,1606.14 309.99,1606.27 306.15,1605.27"/>
    </edge>
    <edge id=":2129977252_14" function="internal">
        <lane id=":2129977252_14_0" index="0" speed="13.89" length="2.41" shape="314.72,1603.42 314.10,1602.74 313.76,1601.29"/>
    </edge>
    <edge id=":2129977252_5" function="internal">
        <lane id=":2129977252_5_0" index="0" disallow="tram rail_urban rail rail_electric ship" speed="9.72" length="4.47" shape="307.30,1602.17 308.37,1602.36 309.29,1602.09 310.05,1601.34 310.67,1600.13"/>
    </edge>
    <edge id=":2129977252_6" function="internal">
        <lane id=":2129977252_6_0" index="0" disallow="tram rail_urban rail rail_electric ship" speed="9.72" length="15.47" shape="307.30,1602.17 312.22,1604.44 315.39,1606.93 316.82,1609.64 316.51,1612.58"/>
    </edge>
    <edge id=":2129977252_7" function="internal">
        <lane id=":2129977252_7_0" index="0" disallow="tram rail_urban rail rail_electric ship" speed="9.72" length="12.56" shape="307.30,1602.17 310.87,1603.93 313.08,1606.05 313.93,1608.54 313.44,1611.39"/>
    </edge>
    <edge id=":2129977252_8" function="internal">
        <lane id=":2129977252_8_0" index="0" allow="delivery bicycle pedestrian" speed="5.56" length="4.82" shape="307.30,1602.17 308.18,1603.38 308.28,1604.30 307.60,1604.93 306.15,1605.27"/>
    </edge>
    <edge id=":2129977252_9" function="internal">
        <lane id=":2129977252_9_0" index="0" allow="delivery bicycle pedestrian" speed="9.72" length="4.45" shape="307.28,1609.02 307.63,1607.69 307.56,1606.62 307.07,1605.82 306.15,1605.27"/>
    </edge>
    <edge id=":2129977252_10" function="internal">
        <lane id=":2129977252_10_0" index="0" disallow="tram rail_urban rail rail_electric ship" speed="13.89" length="9.53" shape="307.28,1609.02 310.67,1600.13"/>
        <lane id=":2129977252_10_1" index="1" disallow="tram rail_urban rail rail_electric ship" speed="13.89" length="9.53" shape="310.36,1610.21 313.76,1601.29"/>
    </edge>
    <edge id=":2129977252_12" function="internal">
        <lane id=":2129977252_12_0" index="0" disallow="tram rail_urban rail rail_electric ship" speed="13.89" length="2.41" shape="310.36,1610.21 311.57,1609.35 312.49,1609.26"/>
    </edge>
    <edge id=":2129977252_15" function="internal">
        <lane id=":2129977252_15_0" index="0" speed="13.89" length="2.41" shape="312.49,1609.26 313.11,1609.94 313.44,1611.39"/>
    </edge>
    <edge id=":21532562_0" function="internal">