<?xml version="1.0" encoding="UTF-8"?>

<!-- generated on 10/22/17 17:16:34 by SUMO polyconvert Version 0.31.0
<?xml version="1.0" encoding="UTF-8"?>

<configuration xmlns:xsi="http://www.w3.org/2001/XMLSchema-instance" xsi:noNamespaceSchemaLocation="http://sumo.dlr.de/xsd/polyconvertConfiguration.xsd">

    <input>
        <net-file value="C:\Users\Christian\Sumo\2017-10-22-17-16-23\oberstimm.net.xml"/>
        <oberstimm-files value="osm_bbox.oberstimm.xml"/>
        <oberstimm.keep-full-type value="true"/>
        <type-file value="C:\Program%20Files%20(x86)\DLR\Sumo\data\typemap\osmPolyconvert.typ.xml"/>
    </input>

    <output>
        <output-file value="C:\Users\Christian\Sumo\2017-10-22-17-16-23\oberstimm.poly.xml"/>
    </output>

    <processing>
        <poi-layer-offset value="5"/>
    </processing>

    <report>
        <verbose value="true"/>
    </report>

</configuration>
-->

<additional xmlns:xsi="http://www.w3.org/2001/XMLSchema-instance" xsi:noNamespaceSchemaLocation="http://sumo.dlr.de/xsd/additional_file.xsd">
    <location netOffset="-680142.76,-5397439.55" convBoundary="-229.10,-274.12,1286.35,2710.29" origBoundary="11.445468,48.701372,11.466383,48.728049" projParameter="+proj=utm +zone=32 +ellps=WGS84 +datum=WGS84 +units=m +no_defs"/>

    <poly id="159698678" type="landuse.cemetery" color="194,194,130" fill="1" layer="-3.00" shape="823.43,882.69 868.05,887.95 927.84,888.34 914.99,806.72 862.55,825.82 820.31,842.18 823.43,882.69"/>
    <poly id="159737603" type="leisure.common" color="207,245,201" fill="1" layer="-2.00" shape="138.54,1006.85 166.74,1055.17 179.77,1078.78 204.24,1122.44 250.74,1092.81 286.29,1067.45 267.45,1032.56 249.31,975.32 248.43,958.21 251.02,944.23 257.33,911.58 274.00,836.43 226.63,827.43 163.01,820.62 162.85,765.12 126.31,763.34 107.87,826.35 95.30,874.57 91.29,933.21 114.32,975.11 138.54,1006.85"/>
    <poly id="159737603#1" type="tourism.attraction" color="207,245,201" fill="1" layer="-2.00" shape="138.54,1006.85 166.74,1055.17 179.77,1078.78 204.24,1122.44 250.74,1092.81 286.29,1067.45 267.45,1032.56 249.31,975.32 248.43,958.21 251.02,944.23 257.33,911.58 274.00,836.43 226.63,827.43 163.01,820.62 162.85,765.12 126.31,763.34 107.87,826.35 95.30,874.57 91.29,933.21 114.32,975.11 138.54,1006.85"/>
    <poly id="174000455" type="building.house" color="255,230,230" fill="1" layer="-1.00" shape="425.00,560.28 441.55,565.21 445.56,551.79 429.01,546.87 425.00,560.28"/>
    <poly id="174001075" type="building.house" color="255,230,230" fill="1" layer="-1.00" shape="542.58,595.02 556.90,598.52 560.06,585.63 545.74,582.14 542.58,595.02"/>
    <poly id="174001076" type="building.house" color="255,230,230" fill="1" layer="-1.00" shape="463.06,535.77 459.01,549.26 474.45,553.87 478.50,540.38 463.06,535.77"/>
    <poly id="174001077" type="building.house" color="255,230,230" fill="1" layer="-1.00" shape="493.82,545.13 494.39,543.55 483.73,539.68 481.62,545.46 491.41,549.02 488.70,557.39 501.62,561.54 505.70,548.95 493.82,545.13"/>
    <poly id="174001078" type="building.house" color="255,230,230" fill="1" layer="-1.00" shape="410.62,520.74 407.47,534.92 419.94,537.68 423.10,523.50 410.62,520.74"/>
    <poly id="174001081" type="building.house" color="255,230,230" fill="1" layer="-1.00" shape="452.07,569.67 471.71,575.38 475.61,562.05 455.97,556.35 452.07,569.67"/>
    <poly id="174001082" type="building.house" color="255,230,230" fill="1" layer="-1.00" shape="433.13,528.96 430.34,541.02 445.03,544.39 447.81,532.33 433.13,528.96"/>
    <poly id="174003290" type="building.house" color="255,230,230" fill="1" layer="-1.00" shape="462.85,503.44 450.00,500.12 447.27,510.59 460.13,513.91 462.85,503.44"/>
    <poly id="174003291" type="building.house" color="255,230,230" fill="1" layer="-1.00" shape="371.62,495.53 386.02,496.04 386.57,480.62 372.17,480.11 371.62,495.53"/>
    <poly id="174003292" type="building.house" color="255,230,230" fill="1" layer="-1.00" shape="493.40,510.60 474.75,505.37 471.44,517.12 490.09,522.35 493.40,510.60"/>
    <poly id="174003293" type="building.house" color="255,230,230" fill="1" layer="-1.00" shape="311.81,511.03 310.47,523.90 323.62,525.27 324.96,512.40 311.81,511.03"/>
    <poly id="174003294" type="building.house" color="255,230,230" fill="1" layer="-1.00" shape="410.35,485.14 396.31,483.96 394.95,500.17 409.00,501.35 410.35,485.14"/>
    <poly id="174003295" type="building.house" color="255,230,230" fill="1" layer="-1.00" shape="500.89,511.81 497.69,524.41 514.22,528.58 517.41,515.98 500.89,511.81"/>
    <poly id="174003298" type="building.house" color="255,230,230" fill="1" layer="-1.00" shape="353.30,516.17 340.01,513.95 336.69,531.06 349.66,533.11 353.30,516.17"/>
    <poly id="174003299" type="building.house" color="255,230,230" fill="1" layer="-1.00" shape="441.65,494.80 424.39,489.21 420.17,503.86 438.08,509.47 441.65,494.80"/>
    <poly id="174003300" type="building.house" color="255,230,230" fill="1" layer="-1.00" shape="353.94,592.54 350.37,607.37 364.93,610.44 369.31,595.96 353.94,592.54"/>
    <poly id="174003302" type="building.house" color="255,230,230" fill="1" layer="-1.00" shape="522.73,533.97 540.82,539.16 544.02,528.04 533.78,525.11 525.93,522.85 522.73,533.97"/>
    <poly id="174003303" type="building.house" color="255,230,230" fill="1" layer="-1.00" shape="357.41,512.73 355.67,523.53 361.00,524.38 360.20,529.38 372.22,531.30 374.75,515.49 357.41,512.73"/>
    <poly id="174003304" type="building.house" color="255,230,230" fill="1" layer="-1.00" shape="339.51,474.39 321.03,473.76 320.52,488.70 333.32,489.13 333.20,492.77 338.87,492.96 339.51,474.39"/>
    <poly id="174003305" type="building.house" color="255,230,230" fill="1" layer="-1.00" shape="291.99,532.87 291.08,546.01 298.39,546.40 298.22,551.76 303.76,551.77 305.31,534.27 291.99,532.87"/>
    <poly id="174003306" type="building.house" color="255,230,230" fill="1" layer="-1.00" shape="381.59,516.17 375.98,537.01 388.66,540.40 393.22,523.43 386.05,521.52 387.10,517.63 381.59,516.17"/>
    <poly id="174003307" type="building.house" color="255,230,230" fill="1" layer="-1.00" shape="384.47,550.39 367.11,547.12 364.74,559.64 375.61,561.69 374.67,566.67 381.16,567.89 384.47,550.39"/>
    <poly id="174003308" type="building.house" color="255,230,230" fill="1" layer="-1.00" shape="543.70,539.53 556.55,542.44 561.68,539.77 564.38,529.80 557.17,527.86 556.20,531.44 546.58,528.86 543.70,539.53"/>
    <poly id="174003309" type="building.house" color="255,230,230" fill="1" layer="-1.00" shape="347.23,557.88 353.72,558.91 356.81,543.90 339.66,539.93 336.84,551.70 333.88,552.41 333.70,557.94 346.18,560.12 347.23,557.88"/>
    <poly id="174004653" type="building.house" color="255,230,230" fill="1" layer="-1.00" shape="344.73,867.49 344.59,877.94 358.06,878.12 358.19,867.67 344.73,867.49"/>
    <poly id="174004654" type="amenity.school" color="237,199,199" fill="1" layer="-1.00" shape="185.94,791.79 182.63,807.30 229.31,817.21 232.62,801.70 185.94,791.79"/>
    <poly id="174004655" type="leisure.sports_centre" color="207,245,201" fill="1" layer="-2.00" shape="230.44,774.97 227.03,792.71 258.31,798.71 261.73,780.96 230.44,774.97"/>
    <poly id="174004656" type="building.house" color="255,230,230" fill="1" layer="-1.00" shape="363.41,797.92 350.22,795.86 347.65,812.19 360.85,814.26 363.41,797.92"/>
    <poly id="174004657" type="building.house" color="255,230,230" fill="1" layer="-1.00" shape="353.50,944.04 352.99,955.06 369.21,955.79 369.71,944.78 353.50,944.04"/>
    <poly id="174004658" type="building.house" color="255,230,230" fill="1" layer="-1.00" shape="369.45,803.56 366.72,818.55 381.01,821.14 383.74,806.15 369.45,803.56"/>
    <poly id="174004659" type="building.house" color="255,230,230" fill="1" layer="-1.00" shape="369.89,919.06 369.40,932.26 385.28,932.83 385.77,919.64 369.89,919.06"/>
    <poly id="174004661" type="building.house" color="255,230,230" fill="1" layer="-1.00" shape="347.15,917.55 349.56,936.06 361.65,934.51 359.25,916.00 347.15,917.55"/>
    <poly id="174004664" type="building.house" color="255,230,230" fill="1" layer="-1.00" shape="344.82,844.09 344.39,854.32 356.01,854.81 356.45,844.60 344.82,844.09"/>
    <poly id="174004665" type="building.house" color="255,230,230" fill="1" layer="-1.00" shape="296.90,926.54 306.28,964.16 317.79,961.32 308.41,923.70 296.90,926.54"/>
    <poly id="174005198" type="building.house" color="255,230,230" fill="1" layer="-1.00" shape="752.74,562.05 761.93,570.14 777.43,554.39 766.86,548.53 752.74,562.05"/>
    <poly id="174005199" type="building.house" color="255,230,230" fill="1" layer="-1.00" shape="642.51,605.28 641.15,616.93 657.09,617.77 657.81,605.78 642.51,605.28"/>
    <poly id="174005200" type="building.house" color="255,230,230" fill="1" layer="-1.00" shape="753.42,591.64 753.23,607.55 771.82,606.85 770.74,589.93 753.42,591.64"/>
    <poly id="174005201" type="building.house" color="255,230,230" fill="1" layer="-1.00" shape="675.37,566.38 674.71,576.75 688.06,576.86 688.69,567.77 675.37,566.38"/>
    <poly id="174005202" type="building.house" color="255,230,230" fill="1" layer="-1.00" shape="604.73,614.46 636.58,617.11 637.36,603.17 606.49,600.22 604.73,614.46"/>
    <poly id="174005203" type="building.house" color="255,230,230" fill="1" layer="-1.00" shape="775.94,580.35 784.40,590.69 794.45,582.24 787.28,572.26 775.94,580.35"/>
    <poly id="174005204" type="building.house" color="255,230,230" fill="1" layer="-1.00" shape="763.30,608.40 761.04,618.40 773.50,620.88 775.62,610.54 763.30,608.40"/>
    <poly id="174005205" type="building.house" color="255,230,230" fill="1" layer="-1.00" shape="664.06,603.70 662.67,616.65 681.88,617.27 682.94,604.31 664.06,603.70"/>
    <poly id="174005207" type="building.house" color="255,230,230" fill="1" layer="-1.00" shape="578.55,610.44 593.85,611.10 594.49,596.18 579.19,595.52 578.55,610.44"/>
    <poly id="174005208" type="building.house" color="255,230,230" fill="1" layer="-1.00" shape="789.47,554.78 789.81,564.22 799.26,564.52 799.47,568.10 811.28,565.57 808.28,547.27 797.19,547.89 797.34,553.41 789.47,554.78"/>
    <poly id="174005209" type="building.house" color="255,230,230" fill="1" layer="-1.00" shape="713.03,580.91 711.94,594.20 729.15,596.38 729.59,582.75 733.81,583.20 734.44,573.80 725.96,573.86 724.74,581.29 713.03,580.91"/>
    <poly id="174006200" type="building.house" color="255,230,230" fill="1" layer="-1.00" shape="650.35,636.64 635.06,635.83 635.00,647.85 649.95,649.30 650.35,636.64"/>
    <poly id="174006201" type="building.house" color="255,230,230" fill="1" layer="-1.00" shape="659.77,637.60 658.04,650.87 672.65,652.64 673.71,640.00 659.77,637.60"/>
    <poly id="174006202" type="building.house" color="255,230,230" fill="1" layer="-1.00" shape="803.30,649.40 802.59,661.41 819.50,662.60 820.22,650.28 803.30,649.40"/>
    <poly id="174006203" type="building.house" color="255,230,230" fill="1" layer="-1.00" shape="623.11,634.00 605.44,632.08 603.89,646.35 621.56,648.27 623.11,634.00"/>
    <poly id="174006204" type="building.house" color="255,230,230" fill="1" layer="-1.00" shape="811.62,628.45 811.60,636.04 823.35,636.18 822.26,627.19 815.57,627.43 815.49,629.96 811.62,628.45"/>
    <poly id="174006205" type="building.house" color="255,230,230" fill="1" layer="-1.00" shape="598.49,638.94 578.90,637.88 578.35,647.66 590.10,648.31 589.75,654.58 597.61,655.02 598.49,638.94"/>
    <poly id="174006207" type="building.house" color="255,230,230" fill="1" layer="-1.00" shape="792.40,624.16 790.97,633.07 804.49,635.12 805.21,626.87 807.52,626.72 806.14,619.77 800.09,621.65 799.28,625.31 792.40,624.16"/>
    <poly id="174095452" type="building.house" color="255,230,230" fill="1" layer="-1.00" shape="706.82,684.14 707.91,676.61 692.96,675.07 691.71,689.20 704.87,690.36 704.75,691.76 715.44,692.68 716.11,684.95 706.82,684.14"/>
    <poly id="174096191" type="building.house" color="255,230,230" fill="1" layer="-1.00" shape="274.41,1164.44 285.00,1150.81 273.63,1142.04 263.05,1155.68 274.41,1164.44"/>
    <poly id="174096193" type="building.house" color="255,230,230" fill="1" layer="-1.00" shape="388.42,1115.99 406.20,1134.47 422.72,1118.67 404.93,1100.19 388.42,1115.99"/>
    <poly id="174096365" type="building.house" color="255,230,230" fill="1" layer="-1.00" shape="700.98,940.78 713.50,944.33 718.94,922.45 707.21,918.91 700.98,940.78"/>
    <poly id="174096366" type="building.house" color="255,230,230" fill="1" layer="-1.00" shape="616.69,1067.78 612.93,1078.74 631.24,1084.98 635.00,1074.03 616.69,1067.78"/>
    <poly id="174096367" type="building.house" color="255,230,230" fill="1" layer="-1.00" shape="810.36,978.18 805.07,995.33 824.62,1001.48 828.34,984.26 810.36,978.18"/>
    <poly id="174153297" type="building.house" color="255,230,230" fill="1" layer="-1.00" shape="328.36,588.73 324.34,602.24 340.84,606.02 343.55,592.79 328.36,588.73"/>
    <poly id="174153298" type="building.house" color="255,230,230" fill="1" layer="-1.00" shape="346.69,565.92 331.15,562.82 329.09,576.08 344.66,578.21 346.69,565.92"/>
    <poly id="174153299" type="building.house" color="255,230,230" fill="1" layer="-1.00" shape="265.50,605.03 264.60,622.92 252.40,622.30 253.30,604.42 265.50,605.03"/>
    <poly id="174153302" type="building.house" color="255,230,230" fill="1" layer="-1.00" shape="358.17,580.60 375.23,584.78 378.18,572.77 361.12,568.60 358.17,580.60"/>
    <poly id="174153303" type="building.house" color="255,230,230" fill="1" layer="-1.00" shape="311.01,581.02 314.97,559.38 303.62,557.72 301.10,575.18 302.90,580.11 311.01,581.02"/>
    <poly id="174153687" type="building.house" color="255,230,230" fill="1" layer="-1.00" shape="616.65,667.63 602.57,665.96 601.12,678.14 615.20,679.80 616.65,667.63"/>
    <poly id="174153688" type="building.house" color="255,230,230" fill="1" layer="-1.00" shape="585.07,666.58 575.15,665.81 574.56,673.24 584.48,674.03 585.07,666.58"/>
    <poly id="174153689" type="building.house" color="255,230,230" fill="1" layer="-1.00" shape="681.08,760.75 693.44,761.47 693.80,750.43 680.11,750.31 681.08,760.75"/>
    <poly id="174153690" type="building.house" color="255,230,230" fill="1" layer="-1.00" shape="662.54,678.92 646.28,677.75 645.71,685.53 662.27,687.35 662.54,678.92"/>
    <poly id="174153691" type="building.house" color="255,230,230" fill="1" layer="-1.00" shape="637.21,673.53 625.21,672.52 624.38,682.43 636.38,683.44 637.21,673.53"/>
    <poly id="174153692" type="building.house" color="255,230,230" fill="1" layer="-1.00" shape="661.90,759.15 674.58,760.20 674.98,747.88 661.97,747.12 661.90,759.15"/>
    <poly id="174153693" type="building.house" color="255,230,230" fill="1" layer="-1.00" shape="669.07,688.55 686.94,690.11 688.13,673.57 673.15,673.08 671.82,684.09 668.25,683.65 669.07,688.55"/>
    <poly id="174153694" type="building.house" color="255,230,230" fill="1" layer="-1.00" shape="774.95,679.29 775.50,692.31 788.26,690.77 788.48,694.35 797.30,693.33 797.30,683.26 788.81,683.97 789.01,677.80 774.95,679.29"/>
    <poly id="174157627" type="building.house" color="255,230,230" fill="1" layer="-1.00" shape="237.55,1206.16 245.95,1212.33 253.24,1202.47 244.83,1196.30 237.55,1206.16"/>
    <poly id="174157631" type="building.house" color="255,230,230" fill="1" layer="-1.00" shape="389.95,1258.48 380.88,1262.61 384.80,1271.20 393.88,1267.07 389.95,1258.48"/>
    <poly id="174157635" type="building.house" color="255,230,230" fill="1" layer="-1.00" shape="291.54,1240.96 303.00,1249.30 313.56,1234.85 302.10,1226.53 291.54,1240.96"/>
    <poly id="174157640" type="building.house" color="255,230,230" fill="1" layer="-1.00" shape="317.50,1259.42 336.38,1260.03 336.76,1248.03 317.89,1247.42 317.50,1259.42"/>
    <poly id="174157643" type="building.house" color="255,230,230" fill="1" layer="-1.00" shape="343.35,1308.60 327.08,1308.60 327.07,1322.57 343.36,1322.57 343.35,1308.60"/>
    <poly id="174157645" type="building.house" color="255,230,230" fill="1" layer="-1.00" shape="255.05,1295.45 267.65,1304.08 278.48,1288.35 265.88,1279.72 255.05,1295.45"/>
    <poly id="174157648" type="building.house" color="255,230,230" fill="1" layer="-1.00" shape="274.09,1228.39 284.45,1236.02 293.49,1223.81 283.14,1216.18 274.09,1228.39"/>
    <poly id="174157654" type="building.house" color="255,230,230" fill="1" layer="-1.00" shape="345.15,1277.35 323.28,1277.69 323.48,1290.01 345.35,1289.67 345.15,1277.35"/>
    <poly id="174157658" type="building.house" color="255,230,230" fill="1" layer="-1.00" shape="341.83,1243.98 346.29,1255.20 362.43,1248.83 357.97,1237.62 341.83,1243.98"/>
    <poly id="174157659" type="building.house" color="255,230,230" fill="1" layer="-1.00" shape="316.46,1308.82 303.77,1307.38 302.27,1320.45 314.96,1321.90 316.46,1308.82"/>
    <poly id="174157668" type="building.house" color="255,230,230" fill="1" layer="-1.00" shape="236.52,1277.48 247.81,1285.13 254.34,1275.56 243.05,1267.91 236.52,1277.48"/>
    <poly id="174157671" type="building.house" color="255,230,230" fill="1" layer="-1.00" shape="259.14,1250.89 268.44,1257.30 276.21,1246.08 266.91,1239.67 259.14,1250.89"/>
    <poly id="174157673" type="building.house" color="255,230,230" fill="1" layer="-1.00" shape="253.58,1212.24 264.13,1221.04 274.95,1208.16 264.40,1199.35 253.58,1212.24"/>
    <poly id="174157677" type="building.house" color="255,230,230" fill="1" layer="-1.00" shape="435.03,1237.35 418.80,1243.77 423.96,1256.72 440.19,1250.29 435.03,1237.35"/>
    <poly id="174157685" type="building.house" color="255,230,230" fill="1" layer="-1.00" shape="235.67,1236.89 245.55,1245.12 255.59,1233.15 245.70,1224.91 235.67,1236.89"/>
    <poly id="174157686" type="building.house" color="255,230,230" fill="1" layer="-1.00" shape="272.44,1264.30 285.44,1273.88 295.58,1260.20 282.58,1250.61 272.44,1264.30"/>
    <poly id="174157690" type="building.house" color="255,230,230" fill="1" layer="-1.00" shape="376.77,1314.63 391.53,1309.30 387.99,1299.53 393.67,1297.49 391.21,1290.72 370.77,1298.09 376.77,1314.63"/>
    <poly id="174157695" type="building.house" color="255,230,230" fill="1" layer="-1.00" shape="276.93,1313.74 292.67,1317.87 297.72,1298.67 287.58,1296.01 285.04,1305.66 279.45,1304.20 276.93,1313.74"/>
    <poly id="174158370" type="amenity.fire_station" color="237,199,199" fill="1" layer="-1.00" shape="213.53,1146.71 220.11,1161.43 232.94,1155.73 226.36,1141.00 213.53,1146.71"/>
    <poly id="174158370#1" type="building.yes" color="255,230,230" fill="1" layer="-1.00" shape="213.53,1146.71 220.11,1161.43 232.94,1155.73 226.36,1141.00 213.53,1146.71"/>
    <poly id="174159438" type="building.house" color="255,230,230" fill="1" layer="-1.00" shape="352.77,1308.88 357.96,1323.38 372.26,1318.29 367.06,1303.79 352.77,1308.88"/>
    <poly id="174159441" type="building.house" color="255,230,230" fill="1" layer="-1.00" shape="272.19,767.21 285.36,770.35 290.49,748.99 277.32,745.85 272.19,767.21"/>
    <poly id="174159443" type="building.house" color="255,230,230" fill="1" layer="-1.00" shape="364.93,1032.40 367.15,1045.55 350.36,1048.37 348.14,1035.22 364.93,1032.40"/>
    <poly id="174159444" type="building.house" color="255,230,230" fill="1" layer="-1.00" shape="256.99,735.81 278.08,739.82 280.72,725.97 259.64,721.97 256.99,735.81"/>
    <poly id="174159446" type="building.house" color="255,230,230" fill="1" layer="-1.00" shape="584.19,824.87 556.34,819.42 552.51,837.18 580.36,842.61 584.19,824.87"/>
    <poly id="174159448" type="building.house" color="255,230,230" fill="1" layer="-1.00" shape="279.36,680.02 282.89,670.48 271.78,666.39 266.68,680.17 272.91,682.46 271.53,686.17 284.33,690.89 287.27,682.94 279.36,680.02"/>
    <poly id="174161094" type="building.house" color="255,230,230" fill="1" layer="-1.00" shape="473.15,593.42 470.94,601.32 481.73,604.32 483.94,596.41 473.15,593.42"/>
    <poly id="174161096" type="building.house" color="255,230,230" fill="1" layer="-1.00" shape="551.10,635.59 547.92,646.13 558.81,649.39 561.99,638.86 551.10,635.59"/>
    <poly id="174161097" type="building.house" color="255,230,230" fill="1" layer="-1.00" shape="441.92,583.15 439.15,592.50 453.28,596.68 456.06,587.35 441.92,583.15"/>
    <poly id="174161098" type="building.house" color="255,230,230" fill="1" layer="-1.00" shape="607.38,533.39 628.55,534.29 628.44,523.26 608.22,521.69 607.38,533.39"/>
    <poly id="174161104" type="building.house" color="255,230,230" fill="1" layer="-1.00" shape="522.09,618.28 531.74,621.17 534.26,612.82 524.61,609.93 522.09,618.28"/>
    <poly id="174161105" type="building.house" color="255,230,230" fill="1" layer="-1.00" shape="500.06,609.73 509.47,612.70 511.62,605.93 502.22,602.95 500.06,609.73"/>
    <poly id="174161106" type="building.house" color="255,230,230" fill="1" layer="-1.00" shape="548.85,613.40 547.14,620.57 558.36,623.24 560.07,616.08 548.85,613.40"/>
    <poly id="174161107" type="building.house" color="255,230,230" fill="1" layer="-1.00" shape="786.75,616.13 795.74,615.97 795.95,609.31 802.88,608.84 803.01,597.82 790.33,598.10 790.91,608.46 786.74,609.25 786.75,616.13"/>
    <poly id="174161108" type="building.house" color="255,230,230" fill="1" layer="-1.00" shape="611.11,553.49 620.80,553.35 620.91,549.90 629.43,549.94 629.77,539.39 616.84,540.12 616.62,547.00 611.09,547.06 611.11,553.49"/>
    <poly id="174161476" type="building.house" color="255,230,230" fill="1" layer="-1.00" shape="407.97,604.44 404.99,614.35 416.17,617.68 419.14,607.78 407.97,604.44"/>
    <poly id="174161479" type="building.house" color="255,230,230" fill="1" layer="-1.00" shape="424.15,619.74 434.43,622.78 437.07,613.92 426.78,610.87 424.15,619.74"/>
    <poly id="174161481" type="building.house" color="255,230,230" fill="1" layer="-1.00" shape="391.98,582.63 407.62,587.33 411.05,575.97 395.41,571.27 391.98,582.63"/>
    <poly id="174161482" type="building.house" color="255,230,230" fill="1" layer="-1.00" shape="416.05,589.41 430.09,593.79 433.80,581.97 419.76,577.59 416.05,589.41"/>
    <poly id="174161484" type="building.house" color="255,230,230" fill="1" layer="-1.00" shape="442.18,615.75 439.32,623.90 450.73,627.89 453.60,619.73 442.18,615.75"/>
    <poly id="174161489" type="building.house" color="255,230,230" fill="1" layer="-1.00" shape="404.43,592.63 393.79,589.62 388.61,607.82 399.25,610.82 404.43,592.63"/>
    <poly id="174169690" type="building.house" color="255,230,230" fill="1" layer="-1.00" shape="814.77,797.39 837.70,793.54 836.47,781.77 813.08,785.39 814.77,797.39"/>
    <poly id="174169691" type="building.house" color="255,230,230" fill="1" layer="-1.00" shape="774.72,831.71 780.71,846.14 793.32,840.57 788.24,826.86 774.72,831.71"/>
    <poly id="174169692" type="building.house" color="255,230,230" fill="1" layer="-1.00" shape="550.41,658.02 548.43,664.20 557.52,667.10 559.49,660.92 550.41,658.02"/>
    <poly id="174169694" type="building.house" color="255,230,230" fill="1" layer="-1.00" shape="923.86,929.79 923.26,941.03 938.67,941.99 939.28,930.07 923.86,929.79"/>
    <poly id="174169698" type="building.house" color="255,230,230" fill="1" layer="-1.00" shape="509.42,773.39 507.71,775.03 513.96,776.19 512.66,781.29 519.54,782.90 521.76,778.69 525.12,779.44 529.49,769.43 524.54,767.23 525.64,763.09 519.88,762.10 519.63,764.98 513.28,762.05 512.38,766.91 509.62,765.94 506.82,772.75 509.42,773.39"/>
    <poly id="174169699" type="building.house" color="255,230,230" fill="1" layer="-1.00" shape="265.74,588.08 254.81,587.74 254.46,598.87 265.39,599.21 265.74,588.08"/>
    <poly id="174169700" type="building.house" color="255,230,230" fill="1" layer="-1.00" shape="453.18,760.93 463.34,764.42 469.37,746.95 459.21,743.46 453.18,760.93"/>
    <poly id="174169702" type="building.house" color="255,230,230" fill="1" layer="-1.00" shape="887.16,910.23 906.03,910.84 906.22,897.98 887.57,897.61 887.16,910.23"/>
    <poly id="174169703" type="building.house" color="255,230,230" fill="1" layer="-1.00" shape="298.64,639.92 286.79,635.64 283.00,646.31 294.39,650.12 298.64,639.92"/>
    <poly id="174169705" type="building.house" color="255,230,230" fill="1" layer="-1.00" shape="496.41,668.08 488.25,664.86 483.07,677.94 491.23,681.15 496.41,668.08"/>
    <poly id="174169706" type="building.house" color="255,230,230" fill="1" layer="-1.00" shape="502.00,652.29 512.78,656.53 515.80,648.90 505.02,644.65 502.00,652.29"/>
    <poly id="174169707" type="building.house" color="255,230,230" fill="1" layer="-1.00" shape="904.65,1010.96 915.84,1013.85 919.15,1004.07 907.75,1000.26 904.65,1010.96"/>
    <poly id="174169709" type="building.house" color="255,230,230" fill="1" layer="-1.00" shape="825.35,776.36 842.01,774.37 840.60,761.00 824.61,763.71 825.35,776.36"/>
    <poly id="174169710" type="building.house" color="255,230,230" fill="1" layer="-1.00" shape="793.42,816.45 797.01,826.45 814.29,819.43 810.23,809.65 793.42,816.45"/>
    <poly id="174169712" type="building.house" color="255,230,230" fill="1" layer="-1.00" shape="527.10,660.46 537.17,664.12 542.61,649.18 532.55,645.53 527.10,660.46"/>
    <poly id="174169713" type="building.house" color="255,230,230" fill="1" layer="-1.00" shape="358.54,654.48 341.84,650.96 339.36,663.52 355.83,667.03 358.54,654.48"/>
    <poly id="174169714" type="building.house" color="255,230,230" fill="1" layer="-1.00" shape="503.83,717.39 514.30,721.08 519.09,707.57 508.61,703.87 503.83,717.39"/>
    <poly id="174169716" type="building.house" color="255,230,230" fill="1" layer="-1.00" shape="389.50,630.44 381.07,627.64 376.74,640.37 385.86,643.19 389.50,630.44"/>
    <poly id="174169718" type="building.house" color="255,230,230" fill="1" layer="-1.00" shape="941.87,957.02 938.23,969.78 954.44,974.21 957.62,961.67 941.87,957.02"/>
    <poly id="174169721" type="building.house" color="255,230,230" fill="1" layer="-1.00" shape="330.21,646.91 310.55,642.37 308.34,653.33 325.72,657.56 330.21,646.91"/>
    <poly id="174169723" type="building.house" color="255,230,230" fill="1" layer="-1.00" shape="536.74,683.96 532.50,696.91 544.95,700.96 549.19,688.01 536.74,683.96"/>
    <poly id="174169726" type="building.house" color="255,230,230" fill="1" layer="-1.00" shape="531.61,803.88 544.20,806.58 547.08,795.65 534.04,792.70 531.61,803.88"/>
    <poly id="174169727" type="building.house" color="255,230,230" fill="1" layer="-1.00" shape="288.72,611.58 279.83,608.53 277.54,615.34 286.67,617.94 288.72,611.58"/>
    <poly id="174169729" type="building.house" color="255,230,230" fill="1" layer="-1.00" shape="915.90,912.08 941.93,912.46 942.14,898.68 916.12,898.30 915.90,912.08"/>
    <poly id="174169731" type="building.house" color="255,230,230" fill="1" layer="-1.00" shape="480.41,732.60 489.96,736.49 497.44,718.24 487.88,714.35 480.41,732.60"/>
    <poly id="174169734" type="building.house" color="255,230,230" fill="1" layer="-1.00" shape="333.30,622.66 312.01,618.07 308.64,629.91 330.36,634.97 333.30,622.66"/>
    <poly id="174169737" type="building.house" color="255,230,230" fill="1" layer="-1.00" shape="515.31,832.53 534.49,841.66 539.04,832.15 519.87,823.02 515.31,832.53"/>
    <poly id="174169738" type="building.house" color="255,230,230" fill="1" layer="-1.00" shape="287.92,556.28 286.13,570.36 291.24,571.26 290.60,575.14 298.58,576.51 299.83,569.83 295.55,569.24 297.77,558.04 287.92,556.28"/>
    <poly id="174169740" type="building.house" color="255,230,230" fill="1" layer="-1.00" shape="828.97,807.03 833.01,817.73 847.90,813.16 844.77,802.95 828.97,807.03"/>
    <poly id="174169741" type="building.house" color="255,230,230" fill="1" layer="-1.00" shape="519.67,670.81 514.49,686.58 526.37,690.46 531.55,674.68 519.67,670.81"/>
    <poly id="174169744" type="building.house" color="255,230,230" fill="1" layer="-1.00" shape="297.90,661.68 304.99,663.81 303.02,668.66 310.20,671.55 308.72,676.40 323.84,681.01 326.68,671.74 312.42,667.39 313.13,665.63 305.99,662.76 307.65,657.26 299.94,654.94 297.90,661.68"/>
    <poly id="174169745" type="building.house" color="255,230,230" fill="1" layer="-1.00" shape="465.82,659.15 455.26,655.98 450.57,671.52 461.12,674.68 465.82,659.15"/>
    <poly id="174169746" type="building.house" color="255,230,230" fill="1" layer="-1.00" shape="544.42,828.18 551.76,829.11 555.72,806.26 547.94,804.86 544.42,828.18"/>
    <poly id="174169747" type="building.house" color="255,230,230" fill="1" layer="-1.00" shape="464.65,611.35 460.71,626.86 472.37,629.80 476.30,614.29 464.65,611.35"/>
    <poly id="174169750" type="building.house" color="255,230,230" fill="1" layer="-1.00" shape="299.74,584.37 297.39,592.78 309.72,595.13 311.96,586.14 299.74,584.37"/>
    <poly id="174169751" type="building.house" color="255,230,230" fill="1" layer="-1.00" shape="947.02,911.47 963.16,911.53 963.83,897.77 946.79,897.69 947.02,911.47"/>
    <poly id="174169752" type="building.house" color="255,230,230" fill="1" layer="-1.00" shape="925.24,1015.30 938.46,1019.86 943.21,1008.30 929.05,1004.17 925.24,1015.30"/>
    <poly id="174169753" type="building.house" color="255,230,230" fill="1" layer="-1.00" shape="822.36,747.55 837.89,745.07 835.81,730.98 821.18,734.18 822.36,747.55"/>
    <poly id="174169754" type="building.house" color="255,230,230" fill="1" layer="-1.00" shape="793.07,770.04 815.14,771.44 814.59,760.16 792.94,759.93 793.07,770.04"/>
    <poly id="174169759" type="building.house" color="255,230,230" fill="1" layer="-1.00" shape="948.54,928.75 946.05,941.77 964.40,944.43 966.46,930.48 948.54,928.75"/>
    <poly id="174169761" type="building.house" color="255,230,230" fill="1" layer="-1.00" shape="450.86,718.89 461.47,723.03 467.51,707.63 456.89,703.50 450.86,718.89"/>
    <poly id="174169762" type="building.house" color="255,230,230" fill="1" layer="-1.00" shape="426.00,640.72 417.53,638.36 415.08,647.11 423.55,649.46 426.00,640.72"/>