<?xml version="1.0"?>
<!-- generated on 2017-10-22 19:28:21.618604 by $Id: route2trips.py 25256 2017-07-19 06:38:15Z behrisch $ via randomTrips.py
  options: -n oberstimm.net.xml <doubleminus>seed 42 <doubleminus>fringe-factor 5 -p 12.141345 -r oberstimm.passenger.rou.xml -o oberstimm.passenger.trips.xml -e 3600 <doubleminus>vehicle-class passenger <doubleminus>vclass passenger <doubleminus>prefix veh <doubleminus>min-distance 300 <doubleminus>trip-attributes speedDev="0.1" departLane="best" <doubleminus>validate
-->
<routes xmlns:xsi="http://www.w3.org/2001/XMLSchema-instance" xsi:noNamespaceSchemaLocation="http://sumo.dlr.de/xsd/routes_file.xsd">
    <vType id="passenger" speedFactor="normc(1.00,0.10,0.20,2.00)" vClass="passenger">
    </vType>
    <trip id="veh0" depart="0.00" from="-28329480#0" to="-28329414#0" type="passenger"/>
    <trip id="veh1" depart="12.14" from="28329446#1" to="28050849#0" type="passenger"/>
    <trip id="veh2" depart="24.28" from="-33152140#2" to="-201771331#5" type="passenger"/>
    <trip id="veh3" depart="36.42" from="-28329365#1" to="-77056959#5" type="passenger"/>
    <trip id="veh4" depart="48.57" from="-201771331#5" to="-28050856#0" type="passenger"/>
    <trip id="veh5" depart="60.71" from="-28329414#0" to="201771332#7" type="passenger"/>
    <trip id="veh6" depart="72.85" from="28330044#2" to="28050853" type="passenger"/>
    <trip id="veh7" depart="84.99" from="-28330045#3" to="-27184640#3" type="passenger"/>
    <trip id="veh8" depart="97.13" from="34909815" to="-28330045#1" type="passenger"/>
    <trip id="veh9" depart="109.27" from="-234458499" to="-27100978#0" type="passenger"/>
    <trip id="veh10" depart="121.41" from="28330045#1" to="234458498" type="passenger"/>
    <trip id="veh11" depart="133.55" from="201771332#2" to="77056959#2" type="passenger"/>
    <trip id="veh12" depart="145.70" from="-28330357#1" to="201771332#0" type="passenger"/>
    <trip id="veh13" depart="157.84" from="28330062" to="201771332#5" type="passenger"/>
    <trip id="veh14" depart="169.98" from="28329365#0" to="-201771332#2" type="passenger"/>
    <trip id="veh15" depart="182.12" from="-201771332#9" to="-28329441#0" type="passenger"/>
    <trip id="veh16" depart="194.26" from="27184640#1" to="-28330045#3" type="passenger"/>
    <trip id="veh17" depart="206.40" from="27184640#3" to="234458499" type="passenger"/>
    <trip id="veh18" depart="218.54" from="-28050849#3" to="28329365#0" type="passenger"/>
    <trip id="veh19" depart="230.69" from="77056959#5" to="27184639#1" type="passenger"/>
    <trip id="veh20" depart="242.83" from="201771332#6" to="28050849#1" type="passenger"/>
    <trip id="veh21" depart="254.97" from="-28329414#1" to="-201771332#0" type="passenger"/>
    <trip id="veh22" depart="267.11" from="-28330044#4" to="-28329472#3" type="passenger"/>
    <trip id="veh23" depart="279.25" from="-28329365#0" to="33152140#4" type="passenger"/>
    <trip id="veh24" depart="291.39" from="28330357#5" to="-33152140#4" type="passenger"/>
    <trip id="veh25" depart="303.53" from="-28330357#5" to="-28329365#1" type="passenger"/>
    <trip id="veh26" depart="315.67" from="79423490#1" to="-77056959#6" type="passenger"/>
    <trip id="veh27" depart="327.82" from="-234458499" to="-201771332#2" type="passenger"/>
    <trip id="veh28" depart="339.96" from="28330044#0" to="-28330357#4" type="passenger"/>
    <trip id="veh29" depart="352.10" from="-201771332#6" to="-28330082#1" type="passenger"/>
    <trip id="veh30" depart="364.24" from="79423490#1" to="201771331#1" type="passenger"/>
    <trip id="veh31" depart="376.38" from="77056959#2" to="28330062" type="passenger"/>
    <trip id="veh32" depart="388.52" from="-201771331#1" to="28050856#1" type="passenger"/>
    <trip id="veh33" depart="400.66" from="28050854#1" to="201771331#2" type="passenger"/>
    <trip id="veh34" depart="412.81" from="-28329472#2" to="27184639#1" type="passenger"/>
    <trip id="veh35" depart="424.95" from="-27101016" to="-28331210#1" type="passenger"/>
    <trip id="veh36" depart="437.09" from="-77056959#0" to="34909815" type="passenger"/>
    <trip id="veh37" depart="449.23" from="28330100#1" to="-28329472#2" type="passenger"/>
    <trip id="veh38" depart="461.37" from="201771331#0" to="-28050853" type="passenger"/>
    <trip id="veh39" depart="473.51" from="28330357#5" to="28330100#0" type="passenger"/>
    <trip id="veh40" depart="485.65" from="27184639#0" to="-27184640#3" type="passenger"/>
    <trip id="veh41" depart="497.80" from="28329472#3" to="201771331#3" type="passenger"/>
    <trip id="veh42" depart="509.94" from="28329480#2" to="201771331#1" type="passenger"/>
    <trip id="veh43" depart="522.08" from="-115750415" to="-28330044#5" type="passenger"/>
    <trip id="veh44" depart="534.22" from="-201771331#2" to="33152140#1" type="passenger"/>
    <trip id="veh45" depart="546.36" from="-28330044#1" to="-201771332#5" type="passenger"/>
    <trip id="veh46" depart="558.50" from="28330100#1" to="33152140#4" type="passenger"/>
    <trip id="veh47" depart="570.64" from="28329480#0" to="-27184639#2" type="passenger"/>
    <trip id="veh48" depart="582.78" from="-77056959#4" to="201771332#0" type="passenger"/>
    <trip id="veh49" depart="594.93" from="-28329472#2" to="28330100#0" type="passenger"/>
    <trip id="veh50" depart="607.07" from="-33152140#2" to="-28329365#0" type="passenger"/>
    <trip id="veh51" depart="619.21" from="201771332#3" to="28329365#0" type="passenger"/>
    <trip id="veh52" depart="631.35" from="-28050856#1" to="-28330044#2" type="passenger"/>
    <trip id="veh53" depart="643.49" from="-28330045#3" to="201771332#7" type="passenger"/>
    <trip id="veh54" depart="655.63" from="-28329414#1" to="28330357#3" type="passenger"/>
    <trip id="veh55" depart="667.77" from="28330062" to="-201771332#7" type="passenger"/>
    <trip id="veh56" depart="679.92" from="-28329446#0" to="27184640#2" type="passenger"/>
    <trip id="veh57" depart="692.06" from="33152140#2" to="201771332#4" type="passenger"/>
    <trip id="veh58" depart="704.20" from="-77056959#4" to="28329472#2" type="passenger"/>
    <trip id="veh59" depart="716.34" from="28330044#4" to="-28050854#1" type="passenger"/>
    <trip id="veh60" depart="728.48" from="-27100978#0" to="-28331210#0" type="passenger"/>
    <trip id="veh61" depart="740.62" from="-33152140#2" to="-34909815" type="passenger"/>
    <trip id="veh62" depart="752.76" from="28329446#0" to="27184640#3" type="passenger"/>
    <trip id="veh63" depart="764.90" from="77056959#4" to="-27100978#0" type="passenger"/>
    <trip id="veh64" depart="777.05" from="-28330357#5" to="-28330045#1" type="passenger"/>
    <trip id="veh65" depart="789.19" from="28330062" to="-28329446#2" type="passenger"/>
    <trip id="veh66" depart="801.33" from="-28050854#1" to="-33152140#2" type="passenger"/>
    <trip id="veh67" depart="813.47" from="-28329446#2" to="28331210#1" type="passenger"/>
    <trip id="veh68" depart="825.61" from="-34909815" to="28330062" type="passenger"/>
    <trip id="veh69" depart="837.75" from="79423490#1" to="28330044#4" type="passenger"/>
    <trip id="veh70" depart="849.89" from="77056959#2" to="28331210#1" type="passenger"/>
    <trip id="veh71" depart="862.04" from="28330045#2" to="-28050849#1" type="passenger"/>
    <trip id="veh72" depart="874.18" from="-77056959#6" to="-28329365#0" type="passenger"/>
    <trip id="veh73" depart="886.32" from="-28330357#5" to="-201771332#5" type="passenger"/>
    <trip id="veh74" depart="898.46" from="-28330357#1" to="77056959#5" type="passenger"/>
    <trip id="veh75" depart="910.60" from="34909815" to="79423490#1" type="passenger"/>
    <trip id="veh76" depart="922.74" from="201771332#6" to="28050856#1" type="passenger"/>
    <trip id="veh77" depart="934.88" from="-27184640#3" to="-28329491#1" type="passenger"/>
    <trip id="veh78" depart="947.02" from="77056959#2" to="201771332#5" type="passenger"/>
    <trip id="veh79" depart="959.17" from="201771332#3" to="28329414#1" type="passenger"/>
    <trip id="veh80" depart="971.31" from="-201771332#9" to="-28050854#0" type="passenger"/>
    <trip id="veh81" depart="983.45" from="27100978#1" to="27184640#3" type="passenger"/>
    <trip id="veh82" depart="995.59" from="-28329441#0" to="-27184639#0" type="passenger"/>
    <trip id="veh83" depart="1007.73" from="-33152140#2" to="201771332#6" type="passenger"/>
    <trip id="veh84" depart="1019.87" from="201771331#4" to="33152140#2" type="passenger"/>
    <trip id="veh85" depart="1032.01" from="-28329446#0" to="-28330100#2" type="passenger"/>
    <trip id="veh86" depart="1044.16" from="28050853" to="-28330044#0" type="passenger"/>
    <trip id="veh87" depart="1056.30" from="-201771332#7" to="-28329365#0" type="passenger"/>
    <trip id="veh88" depart="1068.44" from="28330045#1" to="28050854#0" type="passenger"/>
    <trip id="veh89" depart="1080.58" from="27184639#0" to="77056959#5" type="passenger"/>
    <trip id="veh90" depart="1092.72" from="28330044#6" to="-28330044#0" type="passenger"/>
    <trip id="veh91" depart="1104.86" from="28050849#3" to="33152140#3" type="passenger"/>
    <trip id="veh92" depart="1117.00" from="-27184639#4" to="-27184639#0" type="passenger"/>
    <trip id="veh93" depart="1129.15" from="-28329480#0" to="234458498" type="passenger"/>
    <trip id="veh94" depart="1141.29" from="28329414#1" to="-28050856#1" type="passenger"/>
    <trip id="veh95" depart="1153.43" from="27184640#1" to="-28329472#2" type="passenger"/>
    <trip id="veh96" depart="1165.57" from="-79423490#1" to="28330357#3" type="passenger"/>
    <trip id="veh97" depart="1177.71" from="28330045#1" to="-234458499" type="passenger"/>
    <trip id="veh98" depart="1189.85" from="-115750415" to="28329472#0" type="passenger"/>
    <trip id="veh99" depart="1201.99" from="27184640#1" to="-28329472#2" type="passenger"/>
    <trip id="veh100" depart="1214.13" from="28329446#2" to="201771332#0" type="passenger"/>
    <trip id="veh101" depart="1226.28" from="-201771332#8" to="28330100#2" type="passenger"/>
    <trip id="veh102" depart="1238.42" from="28330357#3" to="201771331#4" type="passenger"/>
    <trip id="veh103" depart="1250.56" from="-28330044#1" to="28330357#2" type="passenger"/>
    <trip id="veh104" depart="1262.70" from="28330357#2" to="-28329365#0" type="passenger"/>
    <trip id="veh105" depart="1274.84" from="28329491#0" to="28330100#2" type="passenger"/>
    <trip id="veh106" depart="1286.98" from="-28331210#0" to="27100978#1" type="passenger"/>
    <trip id="veh107" depart="1299.12" from="-27184640#3" to="33152140#1" type="passenger"/>
    <trip id="veh108" depart="1311.27" from="28330082#1" to="77056959#3" type="passenger"/>
    <trip id="veh109" depart="1323.41" from="-201771331#3" to="28329365#1" type="passenger"/>
    <trip id="veh110" depart="1335.55" from="28330044#4" to="-28329472#2" type="passenger"/>
    <trip id="veh111" depart="1347.69" from="28329491#1" to="-27100998#1" type="passenger"/>
    <trip id="veh112" depart="1359.83" from="-28329414#0" to="28329491#1" type="passenger"/>
    <trip id="veh113" depart="1371.97" from="-77056959#1" to="-28330044#1" type="passenger"/>
    <trip id="veh114" depart="1384.11" from="-201771331#3" to="-28050854#1" type="passenger"/>
    <trip id="veh115" depart="1396.25" from="77056959#1" to="-28329480#1" type="passenger"/>
    <trip id="veh116" depart="1408.40" from="27184640#2" to="-28330357#0" type="passenger"/>
    <trip id="veh117" depart="1420.54" from="77056959#4" to="201771331#2" type="passenger"/>
    <trip id="veh118" depart="1432.68" from="33152140#3" to="-27184639#0" type="passenger"/>
    <trip id="veh119" depart="1444.82" from="77056959#0" to="-28329472#2" type="passenger"/>
    <trip id="veh120" depart="1456.96" from="-27100998#1" to="-28331210#1" type="passenger"/>
    <trip id="veh121" depart="1469.10" from="28329446#0" to="-28330044#2" type="passenger"/>
    <trip id="veh122" depart="1481.24" from="27101016" to="-77056959#6" type="passenger"/>
    <trip id="veh123" depart="1493.39" from="-28329472#0" to="28050854#1" type="passenger"/>
    <trip id="veh124" depart="1505.53" from="-115750415" to="28331210#1" type="passenger"/>
    <trip id="veh125" depart="1517.67" from="28329446#2" to="27184640#3" type="passenger"/>
    <trip id="veh126" depart="1529.81" from="-28330100#1" to="-201771332#7" type="passenger"/>
    <trip id="veh127" depart="1541.95" from="28050849#3" to="-28330045#1" type="passenger"/>
    <trip id="veh128" depart="1554.09" from="-28330044#2" to="-28330357#2" type="passenger"/>
    <trip id="veh129" depart="1566.23" from="-28330357#5" to="-28329491#1" type="passenger"/>
    <trip id="veh130" depart="1578.37" from="-27184639#2" to="-28330357#4" type="passenger"/>
    <trip id="veh131" depart="1590.52" from="33152140#3" to="28050849#0" type="passenger"/>
    <trip id="veh132" depart="1602.66" from="28330357#3" to="27100978#0" type="passenger"/>
    <trip id="veh133" depart="1614.80" from="-28330044#0" to="201771331#4" type="passenger"/>
    <trip id="veh134" depart="1626.94" from="-115750415" to="-28329480#2" type="passenger"/>
    <trip id="veh135" depart="1639.08" from="28050849#1" to="-33152140#5" type="passenger"/>
    <trip id="veh136" depart="1651.22" from="-34909815" to="-28329365#0" type="passenger"/>
    <trip id="veh137" depart="1663.36" from="28330044#1" to="-28050849#3" type="passenger"/>
    <trip id="veh138" depart="1675.51" from="-234458498" to="-79423490#1" type="passenger"/>
    <trip id="veh139" depart="1687.65" from="27184640#0" to="-28330045#1" type="passenger"/>
    <trip id="veh140" depart="1699.79" from="28050853" to="-28329414#0" type="passenger"/>
    <trip id="veh141" depart="1711.93" from="-28050856#1" to="-201771331#3" type="passenger"/>
    <trip id="veh142" depart="1724.07" from="-28329446#1" to="-34909816" type="passenger"/>
    <trip id="veh143" depart="1736.21" from="28330045#2" to="-201771332#7" type="passenger"/>
    <trip id="veh144" depart="1748.35" from="-33152140#1" to="27101016" type="passenger"/>
    <trip id="veh145" depart="1760.50" from="-28050856#0" to="28050853" type="passenger"/>
    <trip id="veh146" depart="1772.64" from="115750415" to="-28329446#1" type="passenger"/>
    <trip id="veh147" depart="1784.78" from="-27100998#1" to="-28330357#5" type="passenger"/>
    <trip id="veh148" depart="1796.92" from="201771331#3" to="-201771332#3" type="passenger"/>
    <trip id="veh149" depart="1809.06" from="-77056959#1" to="28329480#2" type="passenger"/>
    <trip id="veh150" depart="1821.20" from="27100978#1" to="33152140#5" type="passenger"/>
    <trip id="veh151" depart="1833.34" from="28330357#1" to="27100978#0" type="passenger"/>
    <trip id="veh152" depart="1845.48" from="28329414#1" to="-77056959#5" type="passenger"/>
    <trip id="veh153" depart="1857.63" from="28330045#1" to="201771331#4" type="passenger"/>
    <trip id="veh154" depart="1869.77" from="28330357#2" to="28329414#1" type="passenger"/>
    <trip id="veh155" depart="1881.91" from="-77056959#4" to="-28329472#1" type="passenger"/>
    <trip id="veh156" depart="1894.05" from="28329480#0" to="115750415" type="passenger"/>
    <trip id="veh157" depart="1906.19" from="27184639#4" to="-28329480#0" type="passenger"/>
    <trip id="veh158" depart="1918.33" from="-201771332#8" to="-28329480#2" type="passenger"/>
    <trip id="veh159" depart="1930.47" from="-28329472#3" to="-28330044#5" type="passenger"/>
    <trip id="veh160" depart="1942.62" from="201771332#3" to="-27184640#0" type="passenger"/>
    <trip id="veh161" depart="1954.76" from="-28329441#0" to="28050849#4" type="passenger"/>
    <trip id="veh162" depart="1966.90" from="28329365#0" to="-201771332#6" type="passenger"/>
    <trip id="veh163" depart="1979.04" from="-33152140#2" to="28330357#3" type="passenger"/>
    <trip id="veh164" depart="1991.18" from="28330045#3" to="34909815" type="passenger"/>
    <trip id="veh165" depart="2003.32" from="201771332#4" to="234458498" type="passenger"/>
    <trip id="veh166" depart="2015.46" from="-28330045#3" to="28050849#0" type="passenger"/>
    <trip id="veh167" depart="2027.60" from="-77056959#3" to="-27184639#2" type="passenger"/>
    <trip id="veh168" depart="2039.75" from="-28330357#4" to="201771332#2" type="passenger"/>
    <trip id="veh169" depart="2051.89" from="-201771331#5" to="27184639#1" type="passenger"/>
    <trip id="veh170" depart="2064.03" from="-27184639#4" to="-33152140#5" type="passenger"/>
    <trip id="veh171" depart="2076.17" from="-201771332#3" to="-28330082#1" type="passenger"/>
    <trip id="veh172" depart="2088.31" from="-28329365#0" to="-28330044#6" type="passenger"/>
    <trip id="veh173" depart="2100.45" from="28329472#3" to="-28330082#1" type="passenger"/>
    <trip id="veh174" depart="2112.59" from="28329472#1" to="28330044#2" type="passenger"/>
    <trip id="veh175" depart="2124.74" from="28050849#0" to="28329472#2" type="passenger"/>
    <trip id="veh176" depart="2136.88" from="28050849#0" to="28329446#0" type="passenger"/>
    <trip id="veh177" depart="2149.02" from="201771332#7" to="-28329365#1" type="passenger"/>
    <trip id="veh178" depart="2161.16" from="28330044#6" to="77056959#1" type="passenger"/>
    <trip id="veh179" depart="2173.30" from="-27100998#1" to="-201771331#3" type="passenger"/>
    <trip id="veh180" depart="2185.44" from="77056959#0" to="-28330100#2" type="passenger"/>
    <trip id="veh181" depart="2197.58" from="28329414#0" to="-201771332#8" type="passenger"/>
    <trip id="veh182" depart="2209.72" from="-27184639#1" to="77056959#4" type="passenger"/>
    <trip id="veh183" depart="2221.87" from="-27100998#1" to="77056959#0" type="passenger"/>
    <trip id="veh184" depart="2234.01" from="28329365#1" to="-28331210#1" type="passenger"/>
    <trip id="veh185" depart="2246.15" from="28329446#1" to="77056959#1" type="passenger"/>
    <trip id="veh186" depart="2258.29" from="201771332#2" to="-77056959#1" type="passenger"/>
    <trip id="veh187" depart="2270.43" from="-33152140#5" to="28329365#0" type="passenger"/>
    <trip id="veh188" depart="2282.57" from="28330045#1" to="-234458498" type="passenger"/>
    <trip id="veh189" depart="2294.71" from="28330100#2" to="-28329446#1" type="passenger"/>
    <trip id="veh190" depart="2306.86" from="28330045#2" to="-28050853" type="passenger"/>
    <trip id="veh191" depart="2319.00" from="-28329365#0" to="28329480#1" type="passenger"/>
    <trip id="veh192" depart="2331.14" from="-234458498" to="28050856#1" type="passenger"/>
    <trip id="veh193" depart="2343.28" from="-79423490#1" to="28329446#0" type="passenger"/>
    <trip id="veh194" depart="2355.42" from="28050856#0" to="27184639#2" type="passenger"/>
    <trip id="veh195" depart="2367.56" from="-79423490#1" to="28329480#0" type="passenger"/>
    <trip id="veh196" depart="2379.70" from="-234458499" to="-28329414#0" type="passenger"/>
    <trip id="veh197" depart="2391.84" from="28050856#1" to="-28330044#1" type="passenger"/>
    <trip id="veh198" depart="2403.99" from="234458499" to="-34909816" type="passenger"/>
    <trip id="veh199" depart="2416.13" from="201771332#1" to="-28330357#5" type="passenger"/>
    <trip id="veh200" depart="2428.27" from="28329365#0" to="-28329472#3" type="passenger"/>
    <trip id="veh201" depart="2440.41" from="-28329472#0" to="-27184639#1" type="passenger"/>
    <trip id="veh202" depart="2452.55" from="-28050854#1" to="-27184639#0" type="passenger"/>
    <trip id="veh203" depart="2464.69" from="-28050854#0" to="-28329365#1" type="passenger"/>
    <trip id="veh204" depart="2476.83" from="-77056959#6" to="28050856#2" type="passenger"/>
    <trip id="veh205" depart="2488.98" from="77056959#3" to="201771331#0" type="passenger"/>
    <trip id="veh206" depart="2501.12" from="-28050856#0" to="-28329414#1" type="passenger"/>
    <trip id="veh207" depart="2513.26" from="-28050853" to="-201771331#1" type="passenger"/>
    <trip id="veh208" depart="2525.40" from="201771332#2" to="-28329480#0" type="passenger"/>
    <trip id="veh209" depart="2537.54" from="77056959#3" to="201771332#0" type="passenger"/>
    <trip id="veh210" depart="2549.68" from="28050856#2" to="-27184639#2" type="passenger"/>
    <trip id="veh211" depart="2561.82" from="28330082#1" to="-77056959#2" type="passenger"/>
    <trip id="veh212" depart="2573.97" from="28330100#0" to="201771332#4" type="passenger"/>
    <trip id="veh213" depart="2586.11" from="-77056959#3" to="-33152140#1" type="passenger"/>
    <trip id="veh214" depart="2598.25" from="-28050854#0" to="-201771332#3" type="passenger"/>
    <trip id="veh215" depart="2610.39" from="33152140#3" to="-77056959#0" type="passenger"/>
    <trip id="veh216" depart="2622.53" from="-201771332#4" to="-27184640#2" type="passenger"/>
    <trip id="veh217" depart="2634.67" from="201771332#7" to="-28330044#1" type="passenger"/>
    <trip id="veh218" depart="2646.81" from="77056959#6" to="-27184639#0" type="passenger"/>
    <trip id="veh219" depart="2658.95" from="28329480#0" to="234458498" type="passenger"/>
    <trip id="veh220" depart="2671.10" from="201771331#4" to="-33152140#3" type="passenger"/>
    <trip id="veh221" depart="2683.24" from="-34909815" to="28330062" type="passenger"/>
    <trip id="veh222" depart="2695.38" from="77056959#6" to="-28330044#1" type="passenger"/>
    <trip id="veh223" depart="2707.52" from="27184639#2" to="234458499" type="passenger"/>
    <trip id="veh224" depart="2719.66" from="-28050856#2" to="-28329365#0" type="passenger"/>
    <trip id="veh225" depart="2731.80" from="28050849#3" to="-27184640#3" type="passenger"/>
    <trip id="veh226" depart="2743.94" from="-115750415" to="-33152140#3" type="passenger"/>
    <trip id="veh227" depart="2756.09" from="-28329441#0" to="28050854#1" type="passenger"/>
    <trip id="veh228" depart="2768.23" from="28329365#0" to="-33152140#3" type="passenger"/>
    <trip id="veh229" depart="2780.37" from="28050856#0" to="28331210#1" type="passenger"/>
    <trip id="veh230" depart="2792.51" from="28050849#3" to="33152140#2" type="passenger"/>
    <trip id="veh231" depart="2804.65" from="-33152140#3" to="201771331#4" type="passenger"/>
    <trip id="veh232" depart="2816.79" from="27184640#3" to="28330357#4" type="passenger"/>
    <trip id="veh233" depart="2828.93" from="-28050849#1" to="-28330044#1" type="passenger"/>
    <trip id="veh234" depart="2841.07" from="-28329491#0" to="-27184639#1" type="passenger"/>
    <trip id="veh235" depart="2853.22" from="28050856#0" to="28050853" type="passenger"/>
    <trip id="veh236" depart="2865.36" from="33152140#4" to="-77056959#4" type="passenger"/>
    <trip id="veh237" depart="2877.50" from="115750415" to="-201771332#9" type="passenger"/>
    <trip id="veh238" depart="2889.64" from="-201771332#1" to="-28331210#0" type="passenger"/>
    <trip id="veh239" depart="2901.78" from="-28330044#5" to="-28329446#2" type="passenger"/>
    <trip id="veh240" depart="2913.92" from="28050853" to="-28329472#3" type="passenger"/>
    <trip id="veh241" depart="2926.06" from="-77056959#3" to="27184639#4" type="passenger"/>
    <trip id="veh242" depart="2938.21" from="28330357#5" to="-28050853" type="passenger"/>
    <trip id="veh243" depart="2950.35" from="234458499" to="27184639#0" type="passenger"/>
    <trip id="veh244" depart="2962.49" from="-79423490#1" to="-234458499" type="passenger"/>
    <trip id="veh245" depart="2974.63" from="-28330082#0" to="-28330045#1" type="passenger"/>
    <trip id="veh246" depart="2986.77" from="28050849#4" to="28330045#3" type="passenger"/>
    <trip id="veh247" depart="2998.91" from="-28330044#6" to="28050849#4" type="passenger"/>
    <trip id="veh248" depart="3011.05" from="28330044#5" to="201771332#0" type="passenger"/>
    <trip id="veh249" depart="3023.19" from="-77056959#0" to="-28330044#4" type="passenger"/>
    <trip id="veh250" depart="3035.34" from="-28330044#5" to="77056959#2" type="passenger"/>
    <trip id="veh251" depart="3047.48" from="-28331210#0" to="-79423490#1" type="passenger"/>
    <trip id="veh252" depart="3059.62" from="77056959#5" to="27184640#0" type="passenger"/>
    <trip id="veh253" depart="3071.76" from="201771332#3" to="-28330357#2" type="passenger"/>
    <trip id="veh254" depart="3083.90" from="-28050854#0" to="-28330045#3" type="passenger"/>
    <trip id="veh255" depart="3096.04" from="201771332#4" to="33152140#1" type="passenger"/>
    <trip id="veh256" depart="3108.18" from="-33152140#5" to="28050853" type="passenger"/>
    <trip id="veh257" depart="3120.33" from="-27184639#1" to="77056959#2" type="passenger"/>
    <trip id="veh258" depart="3132.47" from="27184639#0" to="-28329446#0" type="passenger"/>
    <trip id="veh259" depart="3144.61" from="-28050849#0" to="201771332#0" type="passenger"/>
    <trip id="veh260" depart="3156.75" from="201771332#5" to="-234458499" type="passenger"/>
    <trip id="veh261" depart="3168.89" from="-77056959#2" to="-27184639#0" type="passenger"/>
    <trip id="veh262" depart="3181.03" from="28330045#1" to="-77056959#4" type="passenger"/>
    <trip id="veh263" depart="3193.17" from="28329414#0" to="-77056959#6" type="passenger"/>
    <trip id="veh264" depart="3205.32" from="-28329480#0" to="28330044#4" type="passenger"/>
    <trip id="veh265" depart="3217.46" from="77056959#4" to="-28329446#1" type="passenger"/>
    <trip id="veh266" depart="3229.60" from="201771332#5" to="-28330100#0" type="passenger"/>
    <trip id="veh267" depart="3241.74" from="28331210#1" to="-77056959#6" type="passenger"/>
    <trip id="veh268" depart="3253.88" from="-28329480#2" to="-28330044#0" type="passenger"/>
    <trip id="veh269" depart="3266.02" from="27100978#0" to="79423490#1" type="passenger"/>
    <trip id="veh270" depart="3278.16" from="-79423490#1" to="-27184640#2" type="passenger"/>
    <trip id="veh271" depart="3290.30" from="201771332#2" to="-28330045#1" type="passenger"/>
    <trip id="veh272" depart="3302.45" from="201771332#5" to="201771331#3" type="passenger"/>
    <trip id="veh273" depart="3314.59" from="-77056959#0" to="-28330044#5" type="passenger"/>
    <trip id="veh274" depart="3326.73" from="-28050854#1" to="28050853" type="passenger"/>
    <trip id="veh275" depart="3338.87" from="201771332#9" to="-28329441#0" type="passenger"/>
    <trip id="veh276" depart="3351.01" from="28329472#0" to="28050854#0" type="passenger"/>
    <trip id="veh277" depart="3363.15" from="28050849#3" to="28330044#0" type="passenger"/>
    <trip id="veh278" depart="3375.29" from="-201771332#1" to="-77056959#4" type="passenger"/>
    <trip id="veh279" depart="3387.44" from="27100978#0" to="28330100#0" type="passenger"/>
    <trip id="veh280" depart="3399.58" from="28330100#0" to="-33152140#1" type="passenger"/>
    <trip id="veh281" depart="3411.72" from="201771332#0" to="-33152140#4" type="passenger"/>
    <trip id="veh282" depart="3423.86" from="28329414#1" to="-28330357#2" type="passenger"/>
    <trip id="veh283" depart="3436.00" from="28050849#1" to="-27184640#3" type="passenger"/>
    <trip id="veh284" depart="3448.14" from="-28330045#3" to="28050849#4" type="passenger"/>
    <trip id="veh285" depart="3460.28" from="28050849#0" to="28330045#2" type="passenger"/>
    <trip id="veh286" depart="3472.42" from="-28330357#1" to="-28330044#4" type="passenger"/>
    <trip id="veh287" depart="3484.57" from="28330100#0" to="-201771332#0" type="passenger"/>
    <trip id="veh288" depart="3496.71" from="28329472#0" to="-28331210#0" type="passenger"/>
    <trip id="veh289" depart="3508.85" from="-27100978#0" to="27184639#0" type="passenger"/>
    <trip id="veh290" depart="3520.99" from="28330100#0" to="-33152140#1" type="passenger"/>
    <trip id="veh291" depart="3533.13" from="28050856#1" to="28330357#3" type="passenger"/>
    <trip id="veh292" depart="3545.27" from="-28329491#1" to="-28330082#0" type="passenger"/>
    <trip id="veh293" depart="3557.41" from="-27184640#1" to="201771331#1" type="passenger"/>
    <trip id="veh294" depart="3569.56" from="201771332#8" to="28329480#0" type="passenger"/>
    <trip id="veh295" depart="3581.70" from="28330100#0" to="27100978#1" type="passenger"/>
    <trip id="veh296" depart="3593.84" from="-28329446#0" to="28330357#5" type="passenger"/>
</routes>
