<?xml version="1.0" encoding="UTF-8"?>

<!-- generated on Mon Nov 12 16:43:34 2018 by Eclipse SUMO netconvert Version 1.0.1
<configuration xmlns:xsi="http://www.w3.org/2001/XMLSchema-instance" xsi:noNamespaceSchemaLocation="http://sumo.dlr.de/xsd/netconvertConfiguration.xsd">

    <input>
        <osm-files value="Muelhausen.osm"/>
    </input>

    <output>
        <output-file value="Muelhausen.net.xml"/>
    </output>

    <projection>
        <proj.utm value="true"/>
    </projection>

</configuration>
-->

<net version="1.0" junctionCornerDetail="5" limitTurnSpeed="5.50" xmlns:xsi="http://www.w3.org/2001/XMLSchema-instance" xsi:noNamespaceSchemaLocation="http://sumo.dlr.de/xsd/net_file.xsd">

    <location netOffset="-668324.01,-5404470.27" convBoundary="0.00,0.00,2191.19,1147.73" origBoundary="11.291237,48.770264,11.321053,48.780460" projParameter="+proj=utm +zone=32 +ellps=WGS84 +datum=WGS84 +units=m +no_defs"/>

    <type id="highway.bridleway" priority="1" numLanes="1" speed="2.78" allow="pedestrian" oneway="1" width="2.00"/>
    <type id="highway.bus_guideway" priority="1" numLanes="1" speed="27.78" allow="bus" oneway="1"/>
    <type id="highway.cycleway" priority="1" numLanes="1" speed="8.33" allow="bicycle" oneway="0" width="1.00"/>
    <type id="highway.footway" priority="1" numLanes="1" speed="2.78" allow="pedestrian" oneway="1" width="2.00"/>
    <type id="highway.ford" priority="1" numLanes="1" speed="2.78" allow="army" oneway="0"/>
    <type id="highway.living_street" priority="3" numLanes="1" speed="2.78" disallow="tram rail_urban rail rail_electric ship" oneway="0"/>
    <type id="highway.motorway" priority="13" numLanes="2" speed="44.44" allow="private emergency authority army vip passenger hov taxi bus coach delivery truck trailer motorcycle evehicle custom1 custom2" oneway="1"/>
    <type id="highway.motorway_link" priority="12" numLanes="1" speed="22.22" allow="private emergency authority army vip passenger hov taxi bus coach delivery truck trailer motorcycle evehicle custom1 custom2" oneway="1"/>
    <type id="highway.path" priority="1" numLanes="1" speed="2.78" allow="bicycle pedestrian" oneway="1" width="2.00"/>
    <type id="highway.pedestrian" priority="1" numLanes="1" speed="2.78" allow="pedestrian" oneway="1" width="2.00"/>
    <type id="highway.primary" priority="9" numLanes="2" speed="27.78" disallow="tram rail_urban rail rail_electric ship" oneway="0"/>
    <type id="highway.primary_link" priority="8" numLanes="1" speed="22.22" disallow="tram rail_urban rail rail_electric ship" oneway="0"/>
    <type id="highway.raceway" priority="14" numLanes="2" speed="83.33" allow="vip" oneway="0"/>
    <type id="highway.residential" priority="4" numLanes="1" speed="13.89" disallow="tram rail_urban rail rail_electric ship" oneway="0"/>
    <type id="highway.secondary" priority="7" numLanes="2" speed="27.78" disallow="tram rail_urban rail rail_electric ship" oneway="0"/>
    <type id="highway.secondary_link" priority="6" numLanes="1" speed="22.22" disallow="tram rail_urban rail rail_electric ship" oneway="0"/>
    <type id="highway.service" priority="2" numLanes="1" speed="5.56" allow="delivery bicycle pedestrian" oneway="0"/>
    <type id="highway.stairs" priority="1" numLanes="1" speed="1.39" allow="pedestrian" oneway="1" width="2.00"/>
    <type id="highway.step" priority="1" numLanes="1" speed="1.39" allow="pedestrian" oneway="1" width="2.00"/>
    <type id="highway.steps" priority="1" numLanes="1" speed="1.39" allow="pedestrian" oneway="1" width="2.00"/>
    <type id="highway.tertiary" priority="6" numLanes="1" speed="22.22" disallow="tram rail_urban rail rail_electric ship" oneway="0"/>
    <type id="highway.tertiary_link" priority="5" numLanes="1" speed="22.22" disallow="tram rail_urban rail rail_electric ship" oneway="0"/>
    <type id="highway.track" priority="1" numLanes="1" speed="5.56" disallow="tram rail_urban rail rail_electric ship" oneway="0"/>
    <type id="highway.trunk" priority="11" numLanes="2" speed="27.78" disallow="tram rail_urban rail rail_electric bicycle pedestrian ship" oneway="0"/>
    <type id="highway.trunk_link" priority="10" numLanes="1" speed="22.22" disallow="tram rail_urban rail rail_electric bicycle pedestrian ship" oneway="0"/>
    <type id="highway.unclassified" priority="5" numLanes="1" speed="13.89" disallow="tram rail_urban rail rail_electric ship" oneway="0"/>
    <type id="highway.unsurfaced" priority="1" numLanes="1" speed="8.33" disallow="tram rail_urban rail rail_electric ship" oneway="0"/>
    <type id="railway.light_rail" priority="15" numLanes="1" speed="27.78" allow="rail_urban" oneway="1"/>
    <type id="railway.preserved" priority="15" numLanes="1" speed="27.78" allow="rail" oneway="1"/>
    <type id="railway.rail" priority="15" numLanes="1" speed="83.33" allow="rail rail_electric" oneway="1"/>
    <type id="railway.subway" priority="15" numLanes="1" speed="27.78" allow="rail_urban" oneway="1"/>
    <type id="railway.tram" priority="15" numLanes="1" speed="13.89" allow="tram" oneway="1"/>

    <edge id=":1422565499_0" function="internal">
        <lane id=":1422565499_0_0" index="0" disallow="tram rail_urban rail rail_electric ship" speed="4.75" length="4.58" shape="693.59,704.79 692.12,704.68 691.04,704.94 690.34,705.57 690.03,706.57"/>
    </edge>
    <edge id=":1422565499_1" function="internal">
        <lane id=":1422565499_1_0" index="0" disallow="tram rail_urban rail rail_electric ship" speed="22.22" length="11.97" shape="693.59,704.79 681.90,702.21"/>
    </edge>
    <edge id=":1422565499_2" function="internal">
        <lane id=":1422565499_2_0" index="0" disallow="tram rail_urban rail rail_electric ship" speed="3.65" length="2.34" shape="693.59,704.79 692.55,703.79 692.29,702.94"/>
    </edge>
    <edge id=":1422565499_9" function="internal">
        <lane id=":1422565499_9_0" index="0" speed="3.65" length="2.34" shape="692.29,702.94 692.83,702.22 694.15,701.64"/>
    </edge>
    <edge id=":1422565499_3" function="internal">
        <lane id=":1422565499_3_0" index="0" disallow="tram rail_urban rail rail_electric ship" speed="22.22" length="11.73" shape="682.69,699.11 694.15,701.64"/>
    </edge>
    <edge id=":1422565499_4" function="internal">
        <lane id=":1422565499_4_0" index="0" disallow="tram rail_urban rail rail_electric ship" speed="7.67" length="6.50" shape="682.69,699.11 686.10,700.33 688.46,701.98"/>
    </edge>
    <edge id=":1422565499_5" function="internal">
        <lane id=":1422565499_5_0" index="0" disallow="tram rail_urban rail rail_electric ship" speed="3.65" length="2.34" shape="682.69,699.11 683.66,700.18 683.85,701.06"/>
    </edge>
    <edge id=":1422565499_10" function="internal">
        <lane id=":1422565499_10_0" index="0" speed="7.67" length="4.98" shape="688.46,701.98 689.77,704.06 690.03,706.57"/>
    </edge>
    <edge id=":1422565499_11" function="internal">
        <lane id=":1422565499_11_0" index="0" speed="3.65" length="2.34" shape="683.85,701.06 683.26,701.73 681.90,702.21"/>
    </edge>
    <edge id=":1422565499_6" function="internal">
        <lane id=":1422565499_6_0" index="0" disallow="tram rail_urban rail rail_electric ship" speed="6.11" length="6.95" shape="686.84,706.30 686.63,705.01 685.74,703.90 684.16,702.97 681.90,702.21"/>
    </edge>
    <edge id=":1422565499_7" function="internal">
        <lane id=":1422565499_7_0" index="0" disallow="tram rail_urban rail rail_electric ship" speed="6.66" length="10.04" shape="686.84,706.30 687.51,703.82 688.95,702.21 691.17,701.49 694.15,701.64"/>
    </edge>
    <edge id=":1422565499_8" function="internal">
        <lane id=":1422565499_8_0" index="0" disallow="tram rail_urban rail rail_electric ship" speed="3.65" length="4.67" shape="686.84,706.30 687.73,705.17 688.56,704.84 689.33,705.30 690.03,706.57"/>
    </edge>
    <edge id=":1422565516_0" function="internal">
        <lane id=":1422565516_0_0" index="0" disallow="tram rail_urban rail rail_electric ship" speed="5.11" length="4.62" shape="1187.53,740.64 1186.20,740.74 1185.19,741.18 1184.50,741.94 1184.11,743.04"/>
    </edge>
    <edge id=":1422565516_1" function="internal">
        <lane id=":1422565516_1_0" index="0" disallow="tram rail_urban rail rail_electric ship" speed="3.76" length="2.23" shape="1187.53,740.64 1186.19,740.10 1185.70,739.48"/>
    </edge>
    <edge id=":1422565516_6" function="internal">
        <lane id=":1422565516_6_0" index="0" speed="3.76" length="2.44" shape="1185.70,739.48 1185.64,739.40 1185.87,738.53 1186.88,737.51"/>
    </edge>
    <edge id=":1422565516_2" function="internal">
        <lane id=":1422565516_2_0" index="0" disallow="tram rail_urban rail rail_electric ship" speed="4.60" length="5.13" shape="1184.13,734.22 1184.27,735.88 1184.78,736.98 1185.65,737.52 1186.88,737.51"/>
    </edge>
    <edge id=":1422565516_3" function="internal">
        <lane id=":1422565516_3_0" index="0" disallow="tram rail_urban rail rail_electric ship" speed="8.34" length="8.85" shape="1184.13,734.22 1184.20,736.85 1184.38,738.66 1184.44,740.45 1184.11,743.04"/>
    </edge>
    <edge id=":1422565516_4" function="internal">
        <lane id=":1422565516_4_0" index="0" disallow="tram rail_urban rail rail_electric ship" speed="6.75" length="6.91" shape="1181.24,740.92 1181.76,739.83 1182.87,738.90 1184.58,738.12 1186.88,737.51"/>
    </edge>
    <edge id=":1422565516_5" function="internal">
        <lane id=":1422565516_5_0" index="0" disallow="tram rail_urban rail rail_electric ship" speed="3.79" length="2.48" shape="1181.24,740.92 1182.75,740.37 1183.62,740.53"/>
    </edge>
    <edge id=":1422565516_7" function="internal">
        <lane id=":1422565516_7_0" index="0" speed="3.79" length="2.72" shape="1183.62,740.53 1183.74,740.55 1184.19,741.43 1184.11,743.04"/>
    </edge>
    <edge id=":1422565551_0" function="internal">
        <lane id=":1422565551_0_0" index="0" disallow="tram rail_urban rail rail_electric ship" speed="3.65" length="4.67" shape="1247.05,809.15 1248.24,809.97 1248.63,810.77 1248.22,811.57 1247.01,812.35"/>
    </edge>
    <edge id=":1422565555_0" function="internal">
        <lane id=":1422565555_0_0" index="0" disallow="tram rail_urban rail rail_electric ship" speed="6.61" length="9.13" shape="1188.07,811.65 1185.57,811.97 1183.75,812.99 1182.61,814.71 1182.16,817.14"/>
    </edge>
    <edge id=":1422565555_1" function="internal">
        <lane id=":1422565555_1_0" index="0" disallow="tram rail_urban rail rail_electric ship" speed="7.98" length="14.23" shape="1188.07,811.65 1184.21,811.06 1181.48,809.36 1179.88,806.58 1179.41,802.70"/>
    </edge>
    <edge id=":1422565555_2" function="internal">
        <lane id=":1422565555_2_0" index="0" disallow="tram rail_urban rail rail_electric ship" speed="3.65" length="4.67" shape="1188.07,811.65 1186.88,810.84 1186.48,810.04 1186.89,809.24 1188.10,808.46"/>
    </edge>
    <edge id=":1422565555_3" function="internal">
        <lane id=":1422565555_3_0" index="0" disallow="tram rail_urban rail rail_electric ship" speed="6.48" length="9.03" shape="1182.61,802.77 1182.91,805.23 1183.92,807.00 1185.65,808.08 1188.10,808.46"/>
    </edge>
    <edge id=":1422565555_4" function="internal">
        <lane id=":1422565555_4_0" index="0" disallow="tram rail_urban rail rail_electric ship" speed="13.89" length="14.37" shape="1182.61,802.77 1182.16,817.14"/>
    </edge>
    <edge id=":1422565555_5" function="internal">
        <lane id=":1422565555_5_0" index="0" disallow="tram rail_urban rail rail_electric ship" speed="3.65" length="2.34" shape="1182.61,802.77 1181.79,803.96 1180.98,804.34"/>
    </edge>
    <edge id=":1422565555_9" function="internal">
        <lane id=":1422565555_9_0" index="0" speed="3.65" length="2.34" shape="1180.98,804.34 1180.19,803.92 1179.41,802.70"/>
    </edge>
    <edge id=":1422565555_6" function="internal">
        <lane id=":1422565555_6_0" index="0" disallow="tram rail_urban rail rail_electric ship" speed="13.89" length="14.31" shape="1178.96,817.00 1179.41,802.70"/>
    </edge>
    <edge id=":1422565555_7" function="internal">
        <lane id=":1422565555_7_0" index="0" disallow="tram rail_urban rail rail_electric ship" speed="8.08" length="5.79" shape="1178.96,817.00 1179.67,813.23 1180.73,811.60"/>
    </edge>
    <edge id=":1422565555_8" function="internal">
        <lane id=":1422565555_8_0" index="0" disallow="tram rail_urban rail rail_electric ship" speed="3.65" length="2.34" shape="1178.96,817.00 1179.81,815.84 1180.62,815.47"/>
    </edge>
    <edge id=":1422565555_10" function="internal">
        <lane id=":1422565555_10_0" index="0" speed="8.08" length="8.39" shape="1180.73,811.60 1181.42,810.54 1184.24,808.95 1188.10,808.46"/>
    </edge>
    <edge id=":1422565555_11" function="internal">
        <lane id=":1422565555_11_0" index="0" speed="3.65" length="2.34" shape="1180.62,815.47 1181.41,815.90 1182.16,817.14"/>
    </edge>
    <edge id=":1422565609_0" function="internal">
        <lane id=":1422565609_0_0" index="0" disallow="tram rail_urban rail rail_electric ship" speed="6.48" length="9.03" shape="1252.80,946.27 1252.28,943.84 1251.10,942.18 1249.28,941.28 1246.81,941.13"/>
    </edge>
    <edge id=":1422565609_1" function="internal">
        <lane id=":1422565609_1_0" index="0" disallow="tram rail_urban rail rail_electric ship" speed="13.89" length="14.42" shape="1252.80,946.27 1251.69,931.89"/>
    </edge>
    <edge id=":1422565609_2" function="internal">
        <lane id=":1422565609_2_0" index="0" disallow="tram rail_urban rail rail_electric ship" speed="3.65" length="2.34" shape="1252.80,946.27 1253.52,945.02 1254.29,944.56"/>
    </edge>
    <edge id=":1422565609_9" function="internal">
        <lane id=":1422565609_9_0" index="0" speed="3.65" length="2.34" shape="1254.29,944.56 1255.11,944.90 1255.99,946.04"/>
    </edge>
    <edge id=":1422565609_3" function="internal">
        <lane id=":1422565609_3_0" index="0" disallow="tram rail_urban rail rail_electric ship" speed="13.89" length="14.46" shape="1254.88,931.62 1255.99,946.04"/>
    </edge>
    <edge id=":1422565609_4" function="internal">
        <lane id=":1422565609_4_0" index="0" disallow="tram rail_urban rail rail_electric ship" speed="8.01" length="5.99" shape="1254.88,931.62 1254.65,935.51 1253.72,937.39"/>
    </edge>
    <edge id=":1422565609_5" function="internal">
        <lane id=":1422565609_5_0" index="0" disallow="tram rail_urban rail rail_electric ship" speed="3.65" length="2.34" shape="1254.88,931.62 1254.19,932.89 1253.42,933.35"/>
    </edge>
    <edge id=":1422565609_10" function="internal">
        <lane id=":1422565609_10_0" index="0" speed="8.01" length="8.24" shape="1253.72,937.39 1253.23,938.38 1250.61,940.26 1246.81,941.13"/>
    </edge>
    <edge id=":1422565609_11" function="internal">
        <lane id=":1422565609_11_0" index="0" speed="3.65" length="2.34" shape="1253.42,933.35 1252.59,933.02 1251.69,931.89"/>
    </edge>
    <edge id=":1422565609_6" function="internal">
        <lane id=":1422565609_6_0" index="0" disallow="tram rail_urban rail rail_electric ship" speed="6.52" length="9.07" shape="1246.54,937.94 1248.97,937.39 1250.64,936.19 1251.55,934.36 1251.69,931.89"/>
    </edge>
    <edge id=":1422565609_7" function="internal">
        <lane id=":1422565609_7_0" index="0" disallow="tram rail_urban rail rail_electric ship" speed="7.98" length="14.24" shape="1246.54,937.94 1250.44,938.17 1253.32,939.60 1255.17,942.22 1255.99,946.04"/>
    </edge>
    <edge id=":1422565609_8" function="internal">
        <lane id=":1422565609_8_0" index="0" disallow="tram rail_urban rail rail_electric ship" speed="3.65" length="4.67" shape="1246.54,937.94 1247.80,938.64 1248.27,939.40 1247.93,940.23 1246.81,941.13"/>
    </edge>
    <edge id=":1422565612_0" function="internal">
        <lane id=":1422565612_0_0" index="0" disallow="tram rail_urban rail rail_electric ship" speed="3.65" length="4.67" shape="1215.84,943.72 1214.58,943.02 1214.11,942.26 1214.44,941.43 1215.57,940.53"/>
    </edge>
    <edge id=":1422565647_0" function="internal">
        <lane id=":1422565647_0_0" index="0" disallow="tram rail_urban rail rail_electric ship" speed="3.65" length="4.67" shape="1573.44,1046.28 1574.66,1047.06 1575.07,1047.85 1574.68,1048.66 1573.49,1049.48"/>
    </edge>
    <edge id=":1601828307_0" function="internal">
        <lane id=":1601828307_0_0" index="0" disallow="tram rail_urban rail rail_electric ship" speed="2.78" length="4.67" shape="951.73,737.55 952.87,736.66 953.75,736.53 954.39,737.16 954.78,738.55"/>
    </edge>
    <edge id=":1601828308_0" function="internal">
        <lane id=":1601828308_0_0" index="0" disallow="tram rail_urban rail rail_electric ship" speed="5.79" length="7.29" shape="939.76,802.91 937.36,802.22 935.51,802.19 934.20,802.81 933.43,804.09"/>
    </edge>
    <edge id=":1601828308_1" function="internal">
        <lane id=":1601828308_1_0" index="0" disallow="tram rail_urban rail rail_electric ship" speed="22.22" length="14.90" shape="939.76,802.91 925.91,797.42"/>
    </edge>
    <edge id=":1601828308_2" function="internal">
        <lane id=":1601828308_2_0" index="0" disallow="tram rail_urban rail rail_electric ship" speed="8.26" length="6.18" shape="939.76,802.91 936.28,800.98 934.90,799.27"/>
    </edge>
    <edge id=":1601828308_3" function="internal">
        <lane id=":1601828308_3_0" index="0" disallow="tram rail_urban rail rail_electric ship" speed="3.65" length="2.34" shape="939.76,802.91 938.92,801.74 938.84,800.85"/>
    </edge>
    <edge id=":1601828308_16" function="internal">
        <lane id=":1601828308_16_0" index="0" speed="8.26" length="8.45" shape="934.90,799.27 934.19,798.39 933.50,795.13 934.20,791.20"/>
    </edge>
    <edge id=":1601828308_17" function="internal">
        <lane id=":1601828308_17_0" index="0" speed="3.65" length="2.34" shape="938.84,800.85 939.50,800.24 940.90,799.93"/>
    </edge>
    <edge id=":1601828308_4" function="internal">
        <lane id=":1601828308_4_0" index="0" disallow="tram rail_urban rail rail_electric ship" speed="6.82" length="9.66" shape="937.24,792.19 936.78,794.79 937.23,796.94 938.61,798.65 940.90,799.93"/>
    </edge>
    <edge id=":1601828308_5" function="internal">
        <lane id=":1601828308_5_0" index="0" disallow="tram rail_urban rail rail_electric ship" speed="2.78" length="12.49" shape="937.24,792.19 933.43,804.09"/>
    </edge>
    <edge id=":1601828308_6" function="internal">
        <lane id=":1601828308_6_0" index="0" disallow="tram rail_urban rail rail_electric ship" speed="7.87" length="14.48" shape="937.24,792.19 935.46,795.79 932.98,797.86 929.80,798.40 925.91,797.42"/>
    </edge>
    <edge id=":1601828308_7" function="internal">
        <lane id=":1601828308_7_0" index="0" disallow="tram rail_urban rail rail_electric ship" speed="2.78" length="4.67" shape="937.24,792.19 936.10,793.08 935.22,793.22 934.58,792.59 934.20,791.20"/>
    </edge>
    <edge id=":1601828308_8" function="internal">
        <lane id=":1601828308_8_0" index="0" disallow="tram rail_urban rail rail_electric ship" speed="6.35" length="9.04" shape="927.12,794.46 929.55,795.07 931.54,794.73 933.09,793.44 934.20,791.20"/>
    </edge>
    <edge id=":1601828308_9" function="internal">
        <lane id=":1601828308_9_0" index="0" disallow="tram rail_urban rail rail_electric ship" speed="22.22" length="14.82" shape="927.12,794.46 940.90,799.93"/>
    </edge>
    <edge id=":1601828308_10" function="internal">
        <lane id=":1601828308_10_0" index="0" disallow="tram rail_urban rail rail_electric ship" speed="7.89" length="6.68" shape="927.12,794.46 930.61,796.33 932.53,798.27"/>
    </edge>
    <edge id=":1601828308_11" function="internal">
        <lane id=":1601828308_11_0" index="0" disallow="tram rail_urban rail rail_electric ship" speed="3.65" length="2.34" shape="927.12,794.46 927.93,795.66 928.00,796.55"/>
    </edge>
    <edge id=":1601828308_18" function="internal">
        <lane id=":1601828308_18_0" index="0" speed="7.89" length="6.12" shape="932.53,798.27 932.82,798.56 933.76,801.15 933.43,804.09"/>
    </edge>
    <edge id=":1601828308_19" function="internal">
        <lane id=":1601828308_19_0" index="0" speed="3.65" length="2.34" shape="928.00,796.55 927.32,797.14 925.91,797.42"/>
    </edge>
    <edge id=":1601828308_12" function="internal">
        <lane id=":1601828308_12_0" index="0" disallow="tram rail_urban rail rail_electric ship" speed="6.38" length="8.05" shape="930.36,803.19 930.49,801.52 929.79,800.00 928.26,798.64 925.91,797.42"/>
    </edge>
    <edge id=":1601828308_13" function="internal">
        <lane id=":1601828308_13_0" index="0" disallow="tram rail_urban rail rail_electric ship" speed="2.78" length="12.59" shape="930.36,803.19 934.20,791.20"/>
    </edge>
    <edge id=":1601828308_14" function="internal">
        <lane id=":1601828308_14_0" index="0" disallow="tram rail_urban rail rail_electric ship" speed="7.43" length="12.69" shape="930.36,803.19 931.78,800.54 934.01,799.11 937.05,798.91 940.90,799.93"/>
    </edge>
    <edge id=":1601828308_15" function="internal">
        <lane id=":1601828308_15_0" index="0" disallow="tram rail_urban rail rail_electric ship" speed="2.78" length="4.67" shape="930.36,803.19 931.47,802.26 932.35,802.10 933.00,802.71 933.43,804.09"/>
    </edge>
    <edge id=":1601828310_0" function="internal">
        <lane id=":1601828310_0_0" index="0" disallow="tram rail_urban rail rail_electric ship" speed="2.78" length="8.93" shape="926.02,869.63 923.61,869.21 921.64,869.66 920.10,870.97 918.99,873.14"/>
    </edge>
    <edge id=":1601828310_1" function="internal">
        <lane id=":1601828310_1_0" index="0" disallow="tram rail_urban rail rail_electric ship" speed="2.78" length="13.59" shape="926.02,869.63 921.16,867.93 917.53,866.37 915.14,864.97 913.97,863.70"/>
    </edge>
    <edge id=":1601828310_2" function="internal">
        <lane id=":1601828310_2_0" index="0" disallow="tram rail_urban rail rail_electric ship" speed="2.78" length="4.67" shape="926.02,869.63 925.12,868.50 924.99,867.61 925.61,866.97 927.00,866.58"/>
    </edge>
    <edge id=":1601828310_3" function="internal">
        <lane id=":1601828310_3_0" index="0" disallow="tram rail_urban rail rail_electric ship" speed="2.78" length="12.63" shape="916.15,860.79 916.75,861.98 918.76,863.34 922.18,864.88 927.00,866.58"/>
    </edge>
    <edge id=":1601828310_4" function="internal">
        <lane id=":1601828310_4_0" index="0" disallow="tram rail_urban rail rail_electric ship" speed="2.78" length="12.93" shape="916.15,860.79 916.63,864.15 918.01,867.06 919.17,869.92 918.99,873.14"/>
    </edge>
    <edge id=":1601828310_5" function="internal">
        <lane id=":1601828310_5_0" index="0" disallow="tram rail_urban rail rail_electric ship" speed="2.78" length="5.32" shape="916.15,860.79 916.70,862.33 916.52,863.33 915.61,863.79 913.97,863.70"/>
    </edge>
    <edge id=":1601828310_6" function="internal">
        <lane id=":1601828310_6_0" index="0" disallow="tram rail_urban rail rail_electric ship" speed="2.78" length="9.04" shape="915.96,872.11 916.50,869.62 916.17,867.84 915.25,866.09 913.97,863.70"/>
    </edge>
    <edge id=":1601828310_7" function="internal">
        <lane id=":1601828310_7_0" index="0" disallow="tram rail_urban rail rail_electric ship" speed="2.78" length="14.03" shape="915.96,872.11 917.70,868.69 920.12,866.63 923.22,865.93 927.00,866.58"/>
    </edge>
    <edge id=":1601828310_8" function="internal">
        <lane id=":1601828310_8_0" index="0" disallow="tram rail_urban rail rail_electric ship" speed="2.78" length="4.67" shape="915.96,872.11 917.11,871.23 917.99,871.11 918.62,871.75 918.99,873.14"/>
    </edge>
    <edge id=":1601828314_0" function="internal">
        <lane id=":1601828314_0_0" index="0" disallow="tram rail_urban rail rail_electric ship" speed="2.78" length="14.16" shape="960.93,945.71 956.68,959.22"/>
    </edge>
    <edge id=":1601828314_1" function="internal">
        <lane id=":1601828314_1_0" index="0" disallow="tram rail_urban rail rail_electric ship" speed="2.78" length="14.07" shape="960.93,945.71 959.22,949.15 956.81,951.23 953.70,951.97 949.90,951.36"/>
    </edge>
    <edge id=":1601828314_2" function="internal">
        <lane id=":1601828314_2_0" index="0" disallow="tram rail_urban rail rail_electric ship" speed="2.78" length="4.67" shape="960.93,945.71 959.80,946.60 958.91,946.73 958.28,946.09 957.90,944.70"/>
    </edge>
    <edge id=":1601828314_3" function="internal">
        <lane id=":1601828314_3_0" index="0" disallow="tram rail_urban rail rail_electric ship" speed="2.78" length="8.98" shape="950.85,948.30 953.28,948.69 955.26,948.22 956.80,946.89 957.90,944.70"/>
    </edge>
    <edge id=":1601828314_4" function="internal">
        <lane id=":1601828314_4_0" index="0" disallow="tram rail_urban rail rail_electric ship" speed="2.78" length="14.08" shape="950.85,948.30 954.33,949.95 956.46,952.32 957.25,955.41 956.68,959.22"/>
    </edge>
    <edge id=":1601828314_5" function="internal">
        <lane id=":1601828314_5_0" index="0" disallow="tram rail_urban rail rail_electric ship" speed="2.78" length="4.67" shape="950.85,948.30 951.76,949.42 951.90,950.30 951.29,950.95 949.90,951.36"/>
    </edge>
    <edge id=":1601828314_6" function="internal">
        <lane id=":1601828314_6_0" index="0" disallow="tram rail_urban rail rail_electric ship" speed="2.78" length="8.96" shape="953.61,958.31 953.97,955.88 953.48,953.92 952.12,952.41 949.90,951.36"/>
    </edge>
    <edge id=":1601828314_7" function="internal">
        <lane id=":1601828314_7_0" index="0" disallow="tram rail_urban rail rail_electric ship" speed="2.78" length="14.26" shape="953.61,958.31 957.90,944.70"/>
    </edge>
    <edge id=":1601828314_8" function="internal">
        <lane id=":1601828314_8_0" index="0" disallow="tram rail_urban rail rail_electric ship" speed="2.78" length="4.67" shape="953.61,958.31 954.72,957.38 955.60,957.23 956.26,957.84 956.68,959.22"/>
    </edge>
    <edge id=":1601828315_0" function="internal">
        <lane id=":1601828315_0_0" index="0" disallow="tram rail_urban rail rail_electric ship" speed="9.73" length="14.84" shape="946.23,1013.66 942.69,1012.50 939.21,1011.27 935.76,1009.96 932.30,1008.57"/>
    </edge>
    <edge id=":1601828315_1" function="internal">
        <lane id=":1601828315_1_0" index="0" disallow="tram rail_urban rail rail_electric ship" speed="8.12" length="14.46" shape="946.23,1013.66 942.76,1011.97 940.64,1009.51 939.90,1006.28 940.52,1002.29"/>
    </edge>
    <edge id=":1601828315_2" function="internal">
        <lane id=":1601828315_2_0" index="0" disallow="tram rail_urban rail rail_electric ship" speed="3.65" length="4.67" shape="946.23,1013.66 945.33,1012.54 945.19,1011.65 945.81,1011.01 947.19,1010.61"/>
    </edge>
    <edge id=":1601828315_3" function="internal">
        <lane id=":1601828315_3_0" index="0" disallow="tram rail_urban rail rail_electric ship" speed="6.65" length="9.36" shape="943.58,1003.21 943.17,1005.82 943.63,1007.92 944.97,1009.52 947.19,1010.61"/>
    </edge>
    <edge id=":1601828315_4" function="internal">
        <lane id=":1601828315_4_0" index="0" disallow="tram rail_urban rail rail_electric ship" speed="4.17" length="14.61" shape="943.58,1003.21 941.88,1006.89 939.43,1009.02 936.24,1009.57 932.30,1008.57"/>
    </edge>
    <edge id=":1601828315_5" function="internal">
        <lane id=":1601828315_5_0" index="0" disallow="tram rail_urban rail rail_electric ship" speed="2.78" length="4.67" shape="943.58,1003.21 942.47,1004.13 941.59,1004.28 940.94,1003.67 940.52,1002.29"/>
    </edge>
    <edge id=":1601828315_6" function="internal">
        <lane id=":1601828315_6_0" index="0" disallow="tram rail_urban rail rail_electric ship" speed="4.17" length="9.04" shape="933.53,1005.61 935.97,1006.23 937.95,1005.89 939.46,1004.58 940.52,1002.29"/>
    </edge>
    <edge id=":1601828315_7" function="internal">
        <lane id=":1601828315_7_0" index="0" disallow="tram rail_urban rail rail_electric ship" speed="9.73" length="14.55" shape="933.53,1005.61 936.94,1006.99 940.31,1008.27 943.70,1009.46 947.19,1010.61"/>
    </edge>
    <edge id=":1601828315_8" function="internal">
        <lane id=":1601828315_8_0" index="0" disallow="tram rail_urban rail rail_electric ship" speed="3.65" length="4.67" shape="933.53,1005.61 934.33,1006.81 934.40,1007.70 933.72,1008.29 932.30,1008.57"/>
    </edge>
    <edge id=":194342486_0" function="internal">
        <lane id=":194342486_0_0" index="0" disallow="tram rail_urban rail rail_electric ship" speed="3.65" length="4.67" shape="2191.20,890.91 2192.39,891.72 2192.79,892.52 2192.38,893.32 2191.17,894.11"/>
    </edge>
    <edge id=":2485353887_0" function="internal">
        <lane id=":2485353887_0_0" index="0" allow="delivery bicycle pedestrian" speed="3.65" length="4.67" shape="1001.51,965.38 1002.47,966.45 1002.66,967.33 1002.08,968.00 1000.72,968.48"/>
    </edge>
    <edge id=":2485353888_0" function="internal">
        <lane id=":2485353888_0_0" index="0" disallow="tram rail_urban rail rail_electric ship" speed="13.89" length="9.75" shape="970.67,1020.98 961.27,1018.39"/>
    </edge>
    <edge id=":2485353888_1" function="internal">
        <lane id=":2485353888_1_0" index="0" allow="delivery bicycle pedestrian" speed="6.83" length="5.36" shape="970.67,1020.98 968.01,1019.93 966.37,1018.29 966.32,1018.12"/>
    </edge>
    <edge id=":2485353888_2" function="internal">
        <lane id=":2485353888_2_0" index="0" disallow="tram rail_urban rail rail_electric ship" speed="3.65" length="2.34" shape="970.67,1020.98 969.69,1019.92 969.48,1019.05"/>
    </edge>
    <edge id=":2485353888_9" function="internal">
        <lane id=":2485353888_9_0" index="0" speed="6.83" length="5.00" shape="966.32,1018.12 965.73,1016.06 966.10,1013.23"/>
    </edge>
    <edge id=":2485353888_10" function="internal">