<?xml version="1.0" encoding="UTF-8"?>

<!-- generated on Mon Nov 12 16:44:04 2018 by Eclipse SUMO polyconvert Version 1.0.1
<configuration xmlns:xsi="http://www.w3.org/2001/XMLSchema-instance" xsi:noNamespaceSchemaLocation="http://sumo.dlr.de/xsd/polyconvertConfiguration.xsd">

    <input>
        <net-file value="Muelhausen.net.xml"/>
        <osm-files value="Muelhausen.osm"/>
        <type-file value="/usr/share/sumo/data/typemap/osmPolyconvert.typ.xml"/>
    </input>

    <output>
        <output-file value="Muelhausen.poly.xml"/>
    </output>

    <processing>
        <poi-layer-offset value="5"/>
    </processing>

</configuration>
-->

<additional xmlns:xsi="http://www.w3.org/2001/XMLSchema-instance" xsi:noNamespaceSchemaLocation="http://sumo.dlr.de/xsd/additional_file.xsd">
    <location netOffset="-668324.01,-5404470.27" convBoundary="-0.00,-0.00,2191.19,1389.66" origBoundary="11.291237,48.770264,11.321053,48.782704" projParameter="+proj=utm +zone=32 +ellps=WGS84 +datum=WGS84 +units=m +no_defs"/>

    <poly id="222614842" type="building" color="255,230,230" fill="1" layer="-1.00" shape="1031.119033,871.169823 1027.973128,884.491451 1041.880921,887.760608 1044.925918,874.858685 1072.431202,877.805433 1073.485081,868.013875 1042.572303,864.685813 1047.372443,845.784978 1029.050248,841.147262 1024.250841,860.025881 1002.979144,854.453436 1000.686508,863.150613 1031.119033,871.169823"/>
    <poly id="222614843" type="building" color="255,230,230" fill="1" layer="-1.00" shape="1100.520693,946.419338 1104.952613,947.688355 1104.666552,948.636450 1109.540168,950.130229 1109.857970,949.105220 1113.385738,950.124352 1115.282303,943.584611 1111.849353,942.590601 1113.040707,938.699525 1108.167082,937.205744 1106.951336,941.173958 1102.424925,939.868701 1100.520693,946.419338"/>
    <poly id="222614844" type="building" color="255,230,230" fill="1" layer="-1.00" shape="1156.024658,746.736235 1156.202987,735.026887 1144.730322,734.857275 1144.641002,740.717507 1126.295526,738.537433 1121.068041,737.311058 1119.575915,743.362419 1125.538953,744.822454 1125.006563,749.289748 1143.696260,751.513624 1144.552354,746.555509 1156.024658,746.736235"/>
    <poly id="222614845" type="building" color="255,230,230" fill="1" layer="-1.00" shape="1031.475188,964.064161 1029.597942,978.225211 1039.352572,979.510725 1041.355295,964.363341 1081.419311,965.576702 1081.770785,953.972726 1042.683680,952.788949 1046.931995,929.043105 1035.362353,926.990616 1029.998695,956.977256 1030.737256,957.110871 1030.527579,964.035467 1031.475188,964.064161"/>
    <poly id="222614847" type="building" color="255,230,230" fill="1" layer="-1.00" shape="1054.277773,1020.068747 1053.757354,1004.477824 1045.227135,1004.764627 1045.747913,1020.344434 1054.277773,1020.068747"/>
    <poly id="222614848" type="building" color="255,230,230" fill="1" layer="-1.00" shape="926.715815,979.872430 929.572825,980.704270 931.927956,972.609717 929.063260,971.788768 926.715815,979.872430"/>
    <poly id="222614849" type="building" color="255,230,230" fill="1" layer="-1.00" shape="1084.702129,793.348089 1087.419726,783.006168 1073.522797,779.370111 1070.805225,789.712038 1084.702129,793.348089"/>
    <poly id="222614850" type="building" color="255,230,230" fill="1" layer="-1.00" shape="1201.799338,728.676694 1209.226198,729.146548 1209.651748,722.384244 1202.232225,721.914613 1201.799338,728.676694"/>
    <poly id="222614851" type="building" color="255,230,230" fill="1" layer="-1.00" shape="1091.726408,1014.160797 1100.530342,1012.847721 1099.454664,1005.639433 1090.651056,1006.941396 1091.726408,1014.160797"/>
    <poly id="222614852" type="building" color="255,230,230" fill="1" layer="-1.00" shape="1207.882886,936.478221 1215.070560,936.340091 1214.974101,931.275232 1207.786421,931.413363 1207.882886,936.478221"/>
    <poly id="222614853" type="building" color="255,230,230" fill="1" layer="-1.00" shape="932.762588,967.139175 936.539940,956.996144 926.084297,953.119701 922.306962,963.262738 932.762588,967.139175"/>
    <poly id="222614854" type="building" color="255,230,230" fill="1" layer="-1.00" shape="1269.324569,737.765892 1273.953761,738.596012 1274.845355,733.683487 1270.216496,732.842252 1269.324569,737.765892"/>
    <poly id="222614855" type="building" color="255,230,230" fill="1" layer="-1.00" shape="1162.997667,832.065837 1171.541044,832.324729 1171.859008,821.832247 1163.315615,821.573355 1162.997667,832.065837"/>
    <poly id="222614856" type="building" color="255,230,230" fill="1" layer="-1.00" shape="1193.662574,798.696378 1207.246116,798.841077 1207.366942,787.819738 1193.783373,787.675040 1193.662574,798.696378"/>
    <poly id="222614857" type="building" color="255,230,230" fill="1" layer="-1.00" shape="1065.337137,927.775973 1078.948942,928.432988 1079.433893,918.490697 1065.822400,917.822567 1065.337137,927.775973"/>
    <poly id="222614859" type="building" color="255,230,230" fill="1" layer="-1.00" shape="1146.939569,985.417465 1146.794280,972.741545 1136.592863,972.855197 1136.738175,985.531116 1146.939569,985.417465"/>
    <poly id="222614860" type="building" color="255,230,230" fill="1" layer="-1.00" shape="1178.962663,959.364954 1186.688907,959.165235 1186.361609,946.917674 1178.635012,947.128509 1178.962663,959.364954"/>
    <poly id="222614861" type="building" color="255,230,230" fill="1" layer="-1.00" shape="1038.902535,786.765669 1044.940407,787.938633 1045.513764,785.030090 1039.475888,783.857126 1038.902535,786.765669"/>
    <poly id="222614862" type="building" color="255,230,230" fill="1" layer="-1.00" shape="995.215046,850.313478 999.259453,835.483772 989.625408,832.878105 985.588372,847.708040 995.215046,850.313478"/>
    <poly id="222614863" type="building" color="255,230,230" fill="1" layer="-1.00" shape="1205.738340,713.220904 1208.434439,713.057868 1208.274553,710.327366 1205.571107,710.490180 1205.738340,713.220904"/>
    <poly id="222614864" type="building" color="255,230,230" fill="1" layer="-1.00" shape="1082.842366,747.934673 1081.543652,756.584051 1092.889001,758.284945 1094.195078,749.635791 1082.842366,747.934673"/>
    <poly id="222614865" type="building" color="255,230,230" fill="1" layer="-1.00" shape="957.439740,913.384140 945.541597,909.308254 943.461352,915.364103 955.359482,919.439985 957.439740,913.384140"/>
    <poly id="222614866" type="building" color="255,230,230" fill="1" layer="-1.00" shape="1232.075552,776.798322 1237.901042,776.730168 1237.819952,770.430886 1231.994456,770.499040 1232.075552,776.798322"/>
    <poly id="222614867" type="building" color="255,230,230" fill="1" layer="-1.00" shape="1326.689117,779.544887 1332.234839,780.458483 1332.613499,778.155939 1327.067437,777.253458 1326.689117,779.544887"/>
    <poly id="222614868" type="building" color="255,230,230" fill="1" layer="-1.00" shape="1066.521143,825.316156 1076.757110,826.983427 1078.083053,818.891127 1067.847072,817.223854 1066.521143,825.316156"/>
    <poly id="222614869" type="building" color="255,230,230" fill="1" layer="-1.00" shape="995.944952,908.052628 1002.142358,891.808463 991.594832,887.806744 985.404800,904.051142 995.944952,908.052628"/>
    <poly id="222614870" type="building" color="255,230,230" fill="1" layer="-1.00" shape="1203.398998,804.231409 1207.170201,804.256713 1207.193963,800.319138 1203.430103,800.294057 1203.398998,804.231409"/>
    <poly id="222614871" type="building" color="255,230,230" fill="1" layer="-1.00" shape="1060.775194,935.169515 1079.259241,938.822120 1080.187651,934.144316 1061.703589,930.491708 1060.775194,935.169515"/>
    <poly id="222614872" type="building" color="255,230,230" fill="1" layer="-1.00" shape="1310.453689,824.409660 1319.867618,824.572804 1320.019778,815.677307 1310.605833,815.514163 1310.453689,824.409660"/>
    <poly id="222614873" type="building" color="255,230,230" fill="1" layer="-1.00" shape="967.016441,844.275605 969.020977,839.507983 958.783261,835.226458 956.779069,839.982968 967.016441,844.275605"/>
    <poly id="222614874" type="building" color="255,230,230" fill="1" layer="-1.00" shape="1140.910158,859.242754 1148.836433,859.482915 1148.985966,854.547892 1141.059683,854.307730 1140.910158,859.242754"/>
    <poly id="222614876" type="building" color="255,230,230" fill="1" layer="-1.00" shape="1132.015626,925.178864 1133.965422,913.000305 1121.079510,910.952259 1119.130079,923.119707 1132.015626,925.178864"/>
    <poly id="222614877" type="building" color="255,230,230" fill="1" layer="-1.00" shape="1289.179716,810.670202 1295.489872,811.106313 1295.663234,808.541664 1289.360421,808.105776 1289.179716,810.670202"/>
    <poly id="222614879" type="building" color="255,230,230" fill="1" layer="-1.00" shape="901.255843,834.008509 911.215832,836.534884 913.551507,827.382851 903.591502,824.856472 901.255843,834.008509"/>
    <poly id="222614880" type="building" color="255,230,230" fill="1" layer="-1.00" shape="1066.003847,763.734118 1072.438943,764.173757 1072.689604,760.510062 1066.254840,760.059307 1066.003847,763.734118"/>
    <poly id="222614881" type="building" color="255,230,230" fill="1" layer="-1.00" shape="1101.028977,819.441515 1110.549265,820.219409 1111.129026,813.217023 1101.608725,812.439127 1101.028977,819.441515"/>
    <poly id="222614882" type="building" color="255,230,230" fill="1" layer="-1.00" shape="1054.237384,780.310208 1061.759162,781.528126 1062.608904,776.291682 1055.087119,775.073762 1054.237384,780.310208"/>
    <poly id="222614884" type="building" color="255,230,230" fill="1" layer="-1.00" shape="1168.586649,1030.017690 1181.720799,1030.415740 1182.006800,1020.979174 1168.872627,1020.581123 1168.586649,1030.017690"/>
    <poly id="222614885" type="building" color="255,230,230" fill="1" layer="-1.00" shape="1187.907205,1034.441410 1187.484592,1025.339369 1182.256997,1025.581435 1182.686964,1034.683697 1187.907205,1034.441410"/>
    <poly id="222614886" type="building" color="255,230,230" fill="1" layer="-1.00" shape="1222.166443,800.973227 1238.639936,801.350231 1238.877486,791.088937 1222.403963,790.711933 1222.166443,800.973227"/>
    <poly id="222614887" type="building" color="255,230,230" fill="1" layer="-1.00" shape="1002.663815,780.105931 1008.092035,781.015646 1008.800241,776.809546 1003.372017,775.899830 1002.663815,780.105931"/>
    <poly id="222614888" type="building" color="255,230,230" fill="1" layer="-1.00" shape="910.773085,847.279456 901.922355,844.786643 900.918199,848.327417 909.768923,850.820229 910.773085,847.279456"/>
    <poly id="222614889" type="building" color="255,230,230" fill="1" layer="-1.00" shape="1089.074929,681.261514 1088.386303,691.130882 1101.006556,692.013765 1101.695541,682.133283 1089.074929,681.261514"/>
    <poly id="222614890" type="building" color="255,230,230" fill="1" layer="-1.00" shape="1227.608622,731.806393 1232.879631,732.566933 1233.816002,726.176119 1228.552671,725.404686 1227.608622,731.806393"/>
    <poly id="222614891" type="building" color="255,230,230" fill="1" layer="-1.00" shape="1066.510599,856.254777 1068.166711,851.098380 1057.491118,847.682291 1055.827669,852.838468 1066.510599,856.254777"/>
    <poly id="222614892" type="building" color="255,230,230" fill="1" layer="-1.00" shape="1276.138186,782.951405 1282.334613,783.016922 1282.381415,778.078781 1276.184982,778.013265 1276.138186,782.951405"/>
    <poly id="222614893" type="building" color="255,230,230" fill="1" layer="-1.00" shape="961.335525,915.849450 963.377378,909.848070 959.738083,908.625409 957.696569,914.615675 961.335525,915.849450"/>
    <poly id="222614894" type="building" color="255,230,230" fill="1" layer="-1.00" shape="919.784709,912.734086 920.671174,909.924010 915.026891,908.140078 914.132746,910.961047 919.784709,912.734086"/>
    <poly id="222614895" type="building" color="255,230,230" fill="1" layer="-1.00" shape="1229.013827,881.192733 1239.545112,880.633110 1238.961477,869.568160 1228.423163,870.116447 1229.013827,881.192733"/>
    <poly id="222614896" type="building" color="255,230,230" fill="1" layer="-1.00" shape="1099.521203,969.462559 1101.802251,955.569632 1093.190902,954.162891 1090.909875,968.055820 1099.521203,969.462559"/>
    <poly id="222614897" type="building" color="255,230,230" fill="1" layer="-1.00" shape="1160.788169,802.584059 1172.688786,802.699929 1172.771965,793.646599 1160.878674,793.530952 1160.788169,802.584059"/>
    <poly id="222614899" type="building" color="255,230,230" fill="1" layer="-1.00" shape="1259.771605,774.923444 1272.906428,775.076944 1273.028323,764.267010 1259.893474,764.113510 1259.771605,774.923444"/>
    <poly id="222614901" type="building" color="255,230,230" fill="1" layer="-1.00" shape="1083.511944,725.827103 1090.564158,726.285451 1090.930830,720.734001 1083.878609,720.275651 1083.511944,725.827103"/>
    <poly id="222614904" type="building" color="255,230,230" fill="1" layer="-1.00" shape="1021.905752,1024.895768 1036.706241,1027.324204 1038.805873,1014.560528 1024.005351,1012.132088 1021.905752,1024.895768"/>
    <poly id="222614906" type="building" color="255,230,230" fill="1" layer="-1.00" shape="1104.320831,856.165116 1122.179416,855.715985 1122.066030,851.206876 1104.207430,851.656008 1104.320831,856.165116"/>
    <poly id="222614908" type="building" color="255,230,230" fill="1" layer="-1.00" shape="1107.911051,1009.489021 1111.417666,1009.506251 1111.424163,1007.592927 1107.917546,1007.575696 1107.911051,1009.489021"/>
    <poly id="222614909" type="building" color="255,230,230" fill="1" layer="-1.00" shape="927.043923,842.198121 933.301969,844.111885 935.314872,837.608991 929.049810,835.683887 927.043923,842.198121"/>
    <poly id="222614911" type="building" color="255,230,230" fill="1" layer="-1.00" shape="936.496242,988.323110 939.005861,979.254226 931.597374,977.216630 929.087767,986.285517 936.496242,988.323110"/>
    <poly id="222614913" type="building" color="255,230,230" fill="1" layer="-1.00" shape="956.229118,924.717355 957.603676,920.842921 948.407990,917.605329 947.033775,921.468650 956.229118,924.717355"/>
    <poly id="222614914" type="building" color="255,230,230" fill="1" layer="-1.00" shape="1224.723178,959.183340 1236.991838,959.032393 1236.850789,947.435727 1224.574758,947.586453 1224.723178,959.183340"/>
    <poly id="222614915" type="building" color="255,230,230" fill="1" layer="-1.00" shape="1254.188328,831.269839 1273.472688,831.331668 1273.504349,820.830501 1254.219952,820.768672 1254.188328,831.269839"/>
    <poly id="222614916" type="building" color="255,230,230" fill="1" layer="-1.00" shape="1173.512916,820.391600 1173.642340,811.996054 1168.189244,811.908681 1168.059491,820.315342 1173.512916,820.391600"/>
    <poly id="222614917" type="building" color="255,230,230" fill="1" layer="-1.00" shape="1283.871751,773.062036 1291.421482,773.357726 1291.928252,760.768315 1284.378841,760.461510 1283.871751,773.062036"/>
    <poly id="222614918" type="building" color="255,230,230" fill="1" layer="-1.00" shape="998.079218,808.892415 1006.460391,810.381029 1007.920817,802.214914 999.532286,800.726076 998.079218,808.892415"/>
    <poly id="222614919" type="building" color="255,230,230" fill="1" layer="-1.00" shape="942.476770,979.236894 944.246291,973.972648 939.056509,972.235819 937.286993,977.500066 942.476770,979.236894"/>
    <poly id="222614920" type="building" color="255,230,230" fill="1" layer="-1.00" shape="1141.010256,990.132858 1146.710977,990.049715 1146.657080,986.732795 1140.956356,986.815938 1141.010256,990.132858"/>
    <poly id="222614921" type="building" color="255,230,230" fill="1" layer="-1.00" shape="962.209399,863.899417 975.125573,867.138391 977.557964,857.466427 964.641768,854.227448 962.209399,863.899417"/>
    <poly id="222614922" type="building" color="255,230,230" fill="1" layer="-1.00" shape="952.587168,942.774421 956.126249,932.245936 946.175978,928.918758 942.637251,939.436133 952.587168,942.774421"/>
    <poly id="222614923" type="building" color="255,230,230" fill="1" layer="-1.00" shape="1145.741192,1016.231125 1151.606733,1016.531237 1151.821857,1012.343583 1145.956312,1012.043471 1145.741192,1016.231125"/>
    <poly id="222614924" type="building" color="255,230,230" fill="1" layer="-1.00" shape="1168.587961,971.989065 1181.190254,972.715868 1181.770211,962.798705 1169.167896,962.071901 1168.587961,971.989065"/>
    <poly id="222614925" type="building" color="255,230,230" fill="1" layer="-1.00" shape="1327.645164,809.355885 1328.815079,799.389870 1324.162823,798.837130 1322.992580,808.814262 1327.645164,809.355885"/>
    <poly id="222614926" type="building" color="255,230,230" fill="1" layer="-1.00" shape="1190.038201,728.320245 1200.440306,728.635504 1200.885651,713.941586 1190.483519,713.626327 1190.038201,728.320245"/>
    <poly id="222614927" type="building" color="255,230,230" fill="1" layer="-1.00" shape="1084.737959,841.687798 1095.125034,842.491922 1095.737708,834.645023 1085.350955,833.829783 1084.737959,841.687798"/>
    <poly id="222614928" type="building" color="255,230,230" fill="1" layer="-1.00" shape="1214.029021,771.066974 1226.774375,771.698066 1227.335056,760.478682 1214.582330,759.847367 1214.029021,771.066974"/>
    <poly id="222614929" type="building" color="255,230,230" fill="1" layer="-1.00" shape="1001.801839,963.043348 1009.142087,945.721280 998.949346,941.418780 991.608790,958.751975 1001.801839,963.043348"/>
    <poly id="222614930" type="building" color="255,230,230" fill="1" layer="-1.00" shape="1209.665325,800.049166 1216.052054,800.142629 1216.227484,788.533312 1209.841079,788.428735 1209.665325,800.049166"/>
    <poly id="222614931" type="building" color="255,230,230" fill="1" layer="-1.00" shape="1234.717096,730.408734 1245.585038,731.850711 1246.908405,721.911589 1236.040444,720.469610 1234.717096,730.408734"/>
    <poly id="222614932" type="building" color="255,230,230" fill="1" layer="-1.00" shape="1208.399076,757.891055 1208.402669,751.950346 1205.175041,751.941519 1205.171451,757.882228 1208.399076,757.891055"/>
    <poly id="222614933" type="building" color="255,230,230" fill="1" layer="-1.00" shape="1101.276883,999.853945 1105.833947,999.902993 1105.861256,997.545295 1101.304190,997.496247 1101.276883,999.853945"/>
    <poly id="222614934" type="building" color="255,230,230" fill="1" layer="-1.00" shape="929.057474,929.947088 931.873125,930.688676 933.830763,923.338601 931.015108,922.597012 929.057474,929.947088"/>
    <poly id="222614935" type="building" color="255,230,230" fill="1" layer="-1.00" shape="959.882073,768.553607 965.651372,770.341361 967.085571,765.712227 961.315931,763.935587 959.882073,768.553607"/>
    <poly id="222614936" type="building" color="255,230,230" fill="1" layer="-1.00" shape="1186.056910,945.083918 1186.496184,930.590065 1175.286412,930.250335 1174.847167,944.744188 1186.056910,945.083918"/>
    <poly id="222614937" type="building" color="255,230,230" fill="1" layer="-1.00" shape="1048.863365,935.676535 1058.720791,937.454696 1059.990996,930.473217 1050.126212,928.694831 1048.863365,935.676535"/>
    <poly id="222614938" type="building" color="255,230,230" fill="1" layer="-1.00" shape="1247.810872,777.030596 1254.113721,777.466436 1254.616562,770.339347 1248.306359,769.903283 1247.810872,777.030596"/>
    <poly id="222614939" type="building" color="255,230,230" fill="1" layer="-1.00" shape="1278.448902,817.320263 1278.618432,811.729460 1274.416513,811.602048 1274.246987,817.192850 1278.448902,817.320263"/>
    <poly id="222614940" type="building" color="255,230,230" fill="1" layer="-1.00" shape="1022.450400,773.540402 1023.405372,766.527123 1020.095720,766.070914 1019.140416,773.095309 1022.450400,773.540402"/>
    <poly id="222614941" type="building" color="255,230,230" fill="1" layer="-1.00" shape="991.143323,934.296023 993.045182,928.791044 990.578156,927.948728 988.676299,933.453707 991.143323,934.296023"/>
    <poly id="222614942" type="building" color="255,230,230" fill="1" layer="-1.00" shape="961.121424,1006.000818 964.885963,992.152757 956.914905,989.997972 953.150385,1003.846038 961.121424,1006.000818"/>
    <poly id="222614943" type="building" color="255,230,230" fill="1" layer="-1.00" shape="1057.562049,826.402099 1059.192632,813.590850 1047.802582,812.155667 1046.172361,824.955805 1057.562049,826.402099"/>
    <poly id="222614944" type="building" color="255,230,230" fill="1" layer="-1.00" shape="1089.314273,652.966478 1108.343972,654.900137 1109.356539,645.018332 1090.327143,643.073555 1089.314273,652.966478"/>
    <poly id="222614946" type="building" color="255,230,230" fill="1" layer="-1.00" shape="1287.301496,837.691828 1292.911870,837.683962 1292.901195,832.944330 1287.298162,832.952419 1287.301496,837.691828"/>
    <poly id="222614947" type="building" color="255,230,230" fill="1" layer="-1.00" shape="880.405651,925.081865 892.760071,928.414910 896.391807,915.063423 884.030349,911.719032 880.405651,925.081865"/>
    <poly id="222614948" type="building" color="255,230,230" fill="1" layer="-1.00" shape="1192.370589,875.531846 1196.156838,875.301723 1195.809780,869.528388 1192.023527,869.758512 1192.370589,875.531846"/>
    <poly id="222614949" type="building" color="255,230,230" fill="1" layer="-1.00" shape="1286.485091,789.205978 1296.629905,789.758373 1297.089408,781.395080 1286.944578,780.842685 1286.485091,789.205978"/>
    <poly id="222614950" type="building" color="255,230,230" fill="1" layer="-1.00" shape="1148.504301,924.799575 1158.695285,924.062617 1157.904408,913.280656 1147.720413,914.028953 1148.504301,924.799575"/>
    <poly id="222614951" type="building" color="255,230,230" fill="1" layer="-1.00" shape="1061.878340,839.504695 1074.340109,841.239371 1075.324863,834.215873 1062.863078,832.481196 1061.878340,839.504695"/>
    <poly id="222614952" type="building" color="255,230,230" fill="1" layer="-1.00" shape="957.742118,851.648972 960.482793,842.965341 955.143954,841.290743 952.395941,849.974154 957.742118,851.648972"/>
    <poly id="222614953" type="building" color="255,230,230" fill="1" layer="-1.00" shape="1088.608974,867.303813 1087.526165,872.466444 1108.217369,876.808995 1109.300534,871.635252 1088.608974,867.303813"/>
    <poly id="222614954" type="building" color="255,230,230" fill="1" layer="-1.00" shape="889.564349,855.904977 903.692497,859.914706 905.205574,854.620440 891.070067,850.610485 889.564349,855.904977"/>
    <poly id="222614955" type="building" color="255,230,230" fill="1" layer="-1.00" shape="1314.142334,772.366883 1329.814028,774.455355 1331.335300,763.087105 1315.655891,761.009521 1314.142334,772.366883"/>
    <poly id="222614956" type="building" color="255,230,230" fill="1" layer="-1.00" shape="965.596051,763.909378 968.333014,755.592766 957.994430,752.209330 955.264491,760.537285 965.596051,763.909378"/>
    <poly id="222614957" type="building" color="255,230,230" fill="1" layer="-1.00" shape="1283.765200,805.188196 1293.928454,805.374017 1294.031617,799.547574 1283.875360,799.373091 1283.765200,805.188196"/>
    <poly id="222614958" type="building" color="255,230,230" fill="1" layer="-1.00" shape="1145.615403,769.227337 1147.926348,756.536843 1138.515047,754.827682 1136.196776,767.517957 1145.615403,769.227337"/>
    <poly id="222614959" type="building" color="255,230,230" fill="1" layer="-1.00" shape="960.008556,829.967994 947.140726,825.128509 943.887530,833.741009 956.755341,838.580487 960.008556,829.967994"/>
    <poly id="222614960" type="building" color="255,230,230" fill="1" layer="-1.00" shape="1256.404979,804.236221 1271.144804,804.560759 1271.386664,793.431834 1256.646472,793.118411 1256.404979,804.236221"/>
    <poly id="222614961" type="building" color="255,230,230" fill="1" layer="-1.00" shape="933.491492,914.383753 936.603046,905.833713 927.795312,902.652397 924.683770,911.202442 933.491492,914.383753"/>
    <poly id="222614962" type="building" color="255,230,230" fill="1" layer="-1.00" shape="1073.771049,752.721860 1076.032504,727.336093 1065.934741,726.440652 1063.680678,751.826644 1073.771049,752.721860"/>
    <poly id="222614963" type="building" color="255,230,230" fill="1" layer="-1.00" shape="1004.944932,995.468074 1020.778577,996.559354 1021.431255,987.145021 1005.597920,986.042626 1004.944932,995.468074"/>
    <poly id="222614964" type="building" color="255,230,230" fill="1" layer="-1.00" shape="1075.858384,675.788179 1087.441887,677.885644 1090.717403,659.806419 1079.133526,657.720062 1075.858384,675.788179"/>
    <poly id="222614965" type="building" color="255,230,230" fill="1" layer="-1.00" shape="1049.783351,925.691793 1062.861584,927.700999 1063.759551,921.843009 1050.680967,919.844915 1049.783351,925.691793"/>
    <poly id="222614966" type="building" color="255,230,230" fill="1" layer="-1.00" shape="1086.715531,1070.357743 1099.214488,1070.847616 1099.773381,1056.524265 1087.266709,1056.045284 1086.715531,1070.357743"/>
    <poly id="222614967" type="building" color="255,230,230" fill="1" layer="-1.00" shape="1239.045435,955.078478 1239.236354,961.392218 1247.832103,961.129943 1247.641532,954.805088 1239.045435,955.078478"/>
    <poly id="222614968" type="building" color="255,230,230" fill="1" layer="-1.00" shape="1171.514859,921.747692 1185.199389,921.461533 1184.988962,911.665043 1171.311754,911.951426 1171.514859,921.747692"/>
    <poly id="222614969" type="building" color="255,230,230" fill="1" layer="-1.00" shape="935.098443,967.699369 944.059040,970.685076 946.314052,963.955885 937.360791,960.970397 935.098443,967.699369"/>
    <poly id="222614970" type="building" color="255,230,230" fill="1" layer="-1.00" shape="926.688589,833.287289 936.141254,836.298987 939.438891,825.974562 929.985873,822.973975 926.688589,833.287289"/>
    <poly id="222614971" type="building" color="255,230,230" fill="1" layer="-1.00" shape="1163.077451,1009.224749 1171.838974,1009.312264 1171.907380,1003.173267 1163.145848,1003.085751 1163.077451,1009.224749"/>
    <poly id="222614972" type="building" color="255,230,230" fill="1" layer="-1.00" shape="1156.899447,820.511174 1161.962860,820.597853 1162.111127,811.579871 1157.047706,811.493192 1156.899447,820.511174"/>
    <poly id="222614973" type="building" color="255,230,230" fill="1" layer="-1.00" shape="1007.463287,908.401338 1010.737528,898.610246 1005.423485,896.847346 1002.149252,906.638441 1007.463287,908.401338"/>
    <poly id="222614975" type="building" color="255,230,230" fill="1" layer="-1.00" shape="1134.968360,883.537994 1138.841269,853.995763 1125.102018,852.199988 1121.229181,881.742228 1134.968360,883.537994"/>
    <poly id="222614976" type="building" color="255,230,230" fill="1" layer="-1.00" shape="1140.602828,931.023856 1142.254428,922.863558 1134.610394,921.319187 1132.958469,929.490603 1140.602828,931.023856"/>
    <poly id="222614977" type="building" color="255,230,230" fill="1" layer="-1.00" shape="1242.959264,801.970682 1251.892165,801.751997 1251.724019,795.171946 1242.798455,795.390854 1242.959264,801.970682"/>
    <poly id="222614978" type="building" color="255,230,230" fill="1" layer="-1.00" shape="1136.370245,718.350187 1136.625508,707.255053 1129.174496,707.096069 1128.926931,718.180311 1136.370245,718.350187"/>
    <poly id="222614979" type="building" color="255,230,230" fill="1" layer="-1.00" shape="1075.243484,773.781792 1089.431601,776.058283 1090.942532,766.714451 1076.754728,764.426842 1075.243484,773.781792"/>
    <poly id="222614980" type="building" color="255,230,230" fill="1" layer="-1.00" shape="1246.388193,733.977710 1252.899006,734.831481 1253.548497,729.900488 1247.029996,729.057609 1246.388193,733.977710"/>
    <poly id="222614981" type="building" color="255,230,230" fill="1" layer="-1.00" shape="1071.613699,1020.593789 1080.973443,1018.407508 1079.416780,1011.785413 1070.057026,1013.971697 1071.613699,1020.593789"/>
    <poly id="222614982" type="building" color="255,230,230" fill="1" layer="-1.00" shape="1319.225131,805.028697 1319.938464,797.752241 1313.772924,797.153613 1313.052591,804.418731 1319.225131,805.028697"/>
    <poly id="222614983" type="building" color="255,230,230" fill="1" layer="-1.00" shape="990.284496,925.748192 993.831002,915.219952 985.212565,912.344652 981.666409,922.861782 990.284496,925.748192"/>
    <poly id="222614984" type="building" color="255,230,230" fill="1" layer="-1.00" shape="1030.200366,767.222363 1028.042381,780.941032 1042.722677,783.232307 1044.880361,769.524758 1030.200366,767.222363"/>
    <poly id="222614985" type="building" color="255,230,230" fill="1" layer="-1.00" shape="1218.701012,776.548650 1223.253949,776.497533 1223.205879,772.746908 1218.652939,772.798025 1218.701012,776.548650"/>
    <poly id="222614986" type="building" color="255,230,230" fill="1" layer="-1.00" shape="1104.410427,1012.186503 1103.604368,1007.000029 1101.307045,1007.353190 1102.113106,1012.539664 1104.410427,1012.186503"/>
    <poly id="222614987" type="building" color="255,230,230" fill="1" layer="-1.00" shape="1129.986519,841.445353 1144.230352,841.876911 1144.645593,828.172218 1130.401725,827.740659 1129.986519,841.445353"/>
    <poly id="222614988" type="building" color="255,230,230" fill="1" layer="-1.00" shape="1004.327191,844.170148 1025.874602,848.894310 1027.723437,840.528582 1006.168648,835.804191 1004.327191,844.170148"/>
    <poly id="222614989" type="building" color="255,230,230" fill="1" layer="-1.00" shape="993.911081,786.760779 998.328291,787.306126 999.479111,777.951376 995.061894,777.406028 993.911081,786.760779"/>
    <poly id="222614990" type="building" color="255,230,230" fill="1" layer="-1.00" shape="1117.083212,779.287785 1136.957168,782.949285 1139.048681,771.676155 1119.174685,768.014649 1117.083212,779.287785"/>
    <poly id="222614992" type="building" color="255,230,230" fill="1" layer="-1.00" shape="1247.949161,828.978029 1250.580373,829.013301 1250.721506,818.537705 1248.090289,818.502433 1247.949161,828.978029"/>