<?xml version="1.0" encoding="UTF-8"?>

<!-- generated on 10/22/17 19:28:21 by SUMO duarouter Version 0.31.0
<?xml version="1.0" encoding="UTF-8"?>

<configuration xmlns:xsi="http://www.w3.org/2001/XMLSchema-instance" xsi:noNamespaceSchemaLocation="http://sumo.dlr.de/xsd/duarouterConfiguration.xsd">

    <input>
        <net-file value="oberstimm.net.xml"/>
        <route-files value="oberstimm.passenger.trips.xml"/>
    </input>

    <output>
        <output-file value="oberstimm.passenger.rou.xml"/>
    </output>

    <processing>
        <ignore-errors value="true"/>
    </processing>

    <time>
        <begin value="0"/>
        <end value="3600.0"/>
    </time>

    <report>
        <no-warnings value="true"/>
        <no-step-log value="true"/>
    </report>

</configuration>
-->

<routes xmlns:xsi="http://www.w3.org/2001/XMLSchema-instance" xsi:noNamespaceSchemaLocation="http://sumo.dlr.de/xsd/routes_file.xsd">
    <vType id="passenger" speedFactor="normc(1.00,0.10,0.20,2.00)" vClass="passenger"/>
    <vehicle id="veh0" type="passenger" depart="0.00">
        <route edges="-28329480#0 33152140#3 33152140#4 33152140#5 201771331#0 27184639#0 27184639#1 -28330044#1 28329414#0 -28329414#0"/>
    </vehicle>
    <vehicle id="veh1" type="passenger" depart="12.14">
        <route edges="28329446#1 28329446#2 33152140#5 201771331#0 201771331#1 201771331#2 201771331#3 28050849#0"/>
    </vehicle>
    <vehicle id="veh2" type="passenger" depart="24.28">
        <route edges="-33152140#2 33152140#2 33152140#3 33152140#4 33152140#5 201771331#0 201771331#1 201771331#2 201771331#3 201771331#4 -201771331#5"/>
    </vehicle>
    <vehicle id="veh3" type="passenger" depart="36.42">
        <route edges="-28329365#1 -28329365#0 -27184639#4 -27184639#2 -27184639#1 -27184639#0 201771331#1 201771331#2 201771331#3 201771331#4 28050853 77056959#0 77056959#1 77056959#2 77056959#3 77056959#4 77056959#5 -77056959#5"/>
    </vehicle>
    <vehicle id="veh4" type="passenger" depart="48.57">
        <route edges="-201771331#5 -201771331#3 -201771331#2 -201771331#1 -201771331#0 -201771332#9 -201771332#8 -201771332#7 -201771332#6 -201771332#5 -201771332#4 -201771332#3 -201771332#2 -201771332#1 28050856#0 -28050856#0"/>
    </vehicle>
    <vehicle id="veh5" type="passenger" depart="60.71">
        <route edges="-28329414#0 28330044#1 -27184639#1 -27184639#0 -201771331#0 -201771332#9 -201771332#8 -201771332#7 201771332#7"/>
    </vehicle>
    <vehicle id="veh6" type="passenger" depart="72.85">
        <route edges="28330044#2 -28330044#2 -27184639#1 -27184639#0 201771331#1 201771331#2 201771331#3 201771331#4 28050853"/>
    </vehicle>
    <vehicle id="veh7" type="passenger" depart="84.99">
        <route edges="-28330045#3 28330045#3 28330044#0 28330044#1 28330044#2 28330044#4 28330044#5 -27184640#3"/>
    </vehicle>
    <vehicle id="veh8" type="passenger" depart="97.13">
        <route edges="34909815 -28050854#0 -28330357#4 -28330357#3 -28330357#2 -28330357#1 -28330357#0 201771332#9 201771331#0 27184639#0 27184639#1 -28330044#1 -28330044#0 -28330045#3 -28330045#2 -28330045#1"/>
    </vehicle>
    <vehicle id="veh9" type="passenger" depart="109.27">
        <route edges="-234458499 -77056959#0 -28050853 -201771331#5 -201771331#3 -201771331#2 -201771331#1 -201771331#0 -201771332#9 -201771332#8 -201771332#7 -201771332#6 -201771332#5 -201771332#4 -201771332#3 -27100978#1 -27100978#0"/>
    </vehicle>
    <vehicle id="veh10" type="passenger" depart="121.41">
        <route edges="28330045#1 28330045#2 28330045#3 28330044#0 28330044#1 -27184639#1 -27184639#0 201771331#1 201771331#2 201771331#3 201771331#4 28050853 77056959#0 77056959#1 234458498"/>
    </vehicle>
    <vehicle id="veh11" type="passenger" depart="133.55">
        <route edges="201771332#2 201771332#3 201771332#4 201771332#5 201771332#6 201771332#7 201771332#8 201771332#9 201771331#0 201771331#1 201771331#2 201771331#3 201771331#4 28050853 77056959#0 77056959#1 77056959#2"/>
    </vehicle>
    <vehicle id="veh12" type="passenger" depart="145.70">
        <route edges="-28330357#1 -28330357#0 -201771332#8 -201771332#7 -201771332#6 -201771332#5 -201771332#4 -201771332#3 -201771332#2 -201771332#1 -201771332#0 201771332#0"/>
    </vehicle>
    <vehicle id="veh13" type="passenger" depart="157.84">
        <route edges="28330062 -27184639#2 -27184639#1 -27184639#0 -201771331#0 -201771332#9 -201771332#8 -201771332#7 -201771332#6 -201771332#5 201771332#5"/>
    </vehicle>
    <vehicle id="veh14" type="passenger" depart="169.98">
        <route edges="28329365#0 -28329365#0 -27184639#4 -27184639#2 -27184639#1 -27184639#0 -201771331#0 -201771332#9 -201771332#8 -201771332#7 -201771332#6 -201771332#5 -201771332#4 -201771332#3 -201771332#2"/>
    </vehicle>
    <vehicle id="veh15" type="passenger" depart="182.12">
        <route edges="-201771332#9 201771332#9 201771331#0 201771331#1 -28330082#1 -28330082#0 -28329441#0"/>
    </vehicle>
    <vehicle id="veh16" type="passenger" depart="194.26">
        <route edges="27184640#1 27184640#2 27184640#3 -28330044#5 -28330044#4 -28330044#2 -28330044#1 -28330044#0 -28330045#3"/>
    </vehicle>
    <vehicle id="veh17" type="passenger" depart="206.40">
        <route edges="27184640#3 28330044#6 28329441#1 28330082#1 201771331#2 201771331#3 201771331#4 28050853 77056959#0 234458499"/>
    </vehicle>
    <vehicle id="veh18" type="passenger" depart="218.54">
        <route edges="-28050849#3 -28050849#1 -28050849#0 -201771331#3 -201771331#2 -201771331#1 27184639#0 27184639#1 27184639#2 27184639#4 28329365#0"/>
    </vehicle>
    <vehicle id="veh19" type="passenger" depart="230.69">
        <route edges="77056959#5 -77056959#5 -77056959#4 -77056959#3 -77056959#2 -77056959#1 -77056959#0 -28050853 -201771331#5 -201771331#3 -201771331#2 -201771331#1 27184639#0 27184639#1"/>
    </vehicle>
    <vehicle id="veh20" type="passenger" depart="242.83">
        <route edges="201771332#6 201771332#7 201771332#8 201771332#9 201771331#0 201771331#1 201771331#2 201771331#3 28050849#0 28050849#1"/>
    </vehicle>
    <vehicle id="veh21" type="passenger" depart="254.97">
        <route edges="-28329414#1 -28329414#0 28330044#1 -27184639#1 -27184639#0 -201771331#0 -201771332#9 -201771332#8 -201771332#7 -201771332#6 -201771332#5 -201771332#4 -201771332#3 -201771332#2 -201771332#1 -201771332#0"/>
    </vehicle>
    <vehicle id="veh22" type="passenger" depart="267.11">
        <route edges="-28330044#4 -28330044#2 -27184639#1 -27184639#0 -201771331#0 -33152140#5 -28329446#2 -28329472#3"/>
    </vehicle>
    <vehicle id="veh23" type="passenger" depart="279.25">
        <route edges="-28329365#0 -27184639#4 -27184639#2 -27184639#1 -27184639#0 -201771331#0 -33152140#5 -33152140#4 33152140#4"/>
    </vehicle>
    <vehicle id="veh24" type="passenger" depart="291.39">
        <route edges="28330357#5 -77056959#3 -77056959#2 -77056959#1 -77056959#0 -28050853 -201771331#5 -201771331#3 -201771331#2 -201771331#1 -201771331#0 -33152140#5 -33152140#4"/>
    </vehicle>
    <vehicle id="veh25" type="passenger" depart="303.53">
        <route edges="-28330357#5 -28330357#4 -28330357#3 -28330357#2 -28330357#1 -28330357#0 201771332#9 201771331#0 27184639#0 27184639#1 -28330044#1 -28330044#0 79423490#1 -28329365#1"/>
    </vehicle>
    <vehicle id="veh26" type="passenger" depart="315.67">
        <route edges="79423490#1 -79423490#1 28330044#0 28330044#1 -27184639#1 -27184639#0 -201771331#0 -201771332#9 28330357#0 28330357#1 28330357#2 28330357#3 28330357#4 28050854#0 28050854#1 -77056959#6"/>
    </vehicle>
    <vehicle id="veh27" type="passenger" depart="327.82">
        <route edges="-234458499 -77056959#0 -28050853 -201771331#5 -201771331#3 -201771331#2 -201771331#1 -201771331#0 -201771332#9 -201771332#8 -201771332#7 -201771332#6 -201771332#5 -201771332#4 -201771332#3 -201771332#2"/>
    </vehicle>
    <vehicle id="veh28" type="passenger" depart="339.96">
        <route edges="28330044#0 28330044#1 -27184639#1 -27184639#0 -201771331#0 -201771332#9 28330357#0 28330357#1 28330357#2 28330357#3 28330357#4 -28330357#4"/>
    </vehicle>
    <vehicle id="veh29" type="passenger" depart="352.10">
        <route edges="-201771332#6 201771332#6 201771332#7 201771332#8 201771332#9 201771331#0 201771331#1 -28330082#1"/>
    </vehicle>
    <vehicle id="veh30" type="passenger" depart="364.24">
        <route edges="79423490#1 -79423490#1 28330044#0 28330044#1 -27184639#1 -27184639#0 201771331#1"/>
    </vehicle>
    <vehicle id="veh31" type="passenger" depart="376.38">
        <route edges="77056959#2 -77056959#2 -77056959#1 -77056959#0 -28050853 -201771331#5 -201771331#3 -201771331#2 -201771331#1 27184639#0 27184639#1 -28330044#1 -28330044#0 79423490#1 28330062"/>
    </vehicle>
    <vehicle id="veh32" type="passenger" depart="388.52">
        <route edges="-201771331#1 -201771331#0 -201771332#9 -201771332#8 -201771332#7 -201771332#6 -201771332#5 -201771332#4 -201771332#3 -201771332#2 -201771332#1 28050856#0 28050856#1"/>
    </vehicle>
    <vehicle id="veh33" type="passenger" depart="400.66">
        <route edges="28050854#1 -28050854#1 -34909815 -77056959#4 -77056959#3 -77056959#2 -77056959#1 -77056959#0 -28050853 -201771331#5 -201771331#3 -201771331#2 201771331#2"/>
    </vehicle>
    <vehicle id="veh34" type="passenger" depart="412.81">
        <route edges="-28329472#2 28329446#1 28329446#2 33152140#5 201771331#0 27184639#0 27184639#1"/>
    </vehicle>
    <vehicle id="veh35" type="passenger" depart="424.95">
        <route edges="-27101016 201771332#6 201771332#7 201771332#8 201771332#9 201771331#0 201771331#1 -28330082#1 -28331210#1"/>
    </vehicle>
    <vehicle id="veh36" type="passenger" depart="437.09">
        <route edges="-77056959#0 77056959#0 77056959#1 77056959#2 77056959#3 77056959#4 34909815"/>
    </vehicle>
    <vehicle id="veh37" type="passenger" depart="449.23">
        <route edges="28330100#1 -28330100#1 -28330100#0 -27184639#2 -27184639#1 -27184639#0 -201771331#0 -33152140#5 -28329446#2 -28329446#1 28329472#2 -28329472#2"/>
    </vehicle>
    <vehicle id="veh38" type="passenger" depart="461.37">
        <route edges="201771331#0 201771331#1 201771331#2 201771331#3 201771331#4 28050853 -28050853"/>
    </vehicle>
    <vehicle id="veh39" type="passenger" depart="473.51">
        <route edges="28330357#5 -77056959#3 -77056959#2 -77056959#1 -77056959#0 -28050853 -201771331#5 -201771331#3 -201771331#2 -201771331#1 27184639#0 27184639#1 27184639#2 28330100#0"/>
    </vehicle>
    <vehicle id="veh40" type="passenger" depart="485.65">
        <route edges="27184639#0 27184639#1 28330044#2 28330044#4 28330044#5 -27184640#3"/>
    </vehicle>
    <vehicle id="veh41" type="passenger" depart="497.80">
        <route edges="28329472#3 28329446#2 33152140#5 201771331#0 201771331#1 201771331#2 201771331#3"/>
    </vehicle>
    <vehicle id="veh42" type="passenger" depart="509.94">
        <route edges="28329480#2 -28050856#0 201771332#1 201771332#2 201771332#3 201771332#4 201771332#5 201771332#6 201771332#7 201771332#8 201771332#9 201771331#0 201771331#1"/>
    </vehicle>
    <vehicle id="veh43" type="passenger" depart="522.08">
        <route edges="-115750415 -77056959#5 -77056959#4 -77056959#3 -77056959#2 -77056959#1 -77056959#0 -28050853 -201771331#5 -201771331#3 -201771331#2 -28330082#1 -28330082#0 -28330044#6 -28330044#5"/>
    </vehicle>
    <vehicle id="veh44" type="passenger" depart="534.22">
        <route edges="-201771331#2 -201771331#1 -201771331#0 -33152140#5 -33152140#4 -33152140#3 -33152140#2 -33152140#1 33152140#1"/>
    </vehicle>
    <vehicle id="veh45" type="passenger" depart="546.36">
        <route edges="-28330044#1 28330044#1 -27184639#1 -27184639#0 -201771331#0 -201771332#9 -201771332#8 -201771332#7 -201771332#6 -201771332#5"/>
    </vehicle>
    <vehicle id="veh46" type="passenger" depart="558.50">
        <route edges="28330100#1 -28330100#1 -28330100#0 -27184639#2 -27184639#1 -27184639#0 -201771331#0 -33152140#5 -33152140#4 33152140#4"/>
    </vehicle>
    <vehicle id="veh47" type="passenger" depart="570.64">
        <route edges="28329480#0 -28329480#0 33152140#3 33152140#4 33152140#5 201771331#0 27184639#0 27184639#1 27184639#2 -27184639#2"/>
    </vehicle>
    <vehicle id="veh48" type="passenger" depart="582.78">
        <route edges="-77056959#4 -28330357#5 -28330357#4 -28330357#3 -28330357#2 -28330357#1 -28330357#0 -201771332#8 -201771332#7 -201771332#6 -201771332#5 -201771332#4 -201771332#3 -201771332#2 -201771332#1 -201771332#0 201771332#0"/>
    </vehicle>
    <vehicle id="veh49" type="passenger" depart="594.93">
        <route edges="-28329472#2 28329446#1 28329446#2 33152140#5 201771331#0 27184639#0 27184639#1 27184639#2 28330100#0"/>
    </vehicle>
    <vehicle id="veh50" type="passenger" depart="607.07">
        <route edges="-33152140#2 33152140#2 33152140#3 33152140#4 33152140#5 201771331#0 27184639#0 27184639#1 27184639#2 27184639#4 28329365#0 -28329365#0"/>
    </vehicle>
    <vehicle id="veh51" type="passenger" depart="619.21">
        <route edges="201771332#3 201771332#4 201771332#5 201771332#6 201771332#7 201771332#8 201771332#9 201771331#0 27184639#0 27184639#1 27184639#2 27184639#4 28329365#0"/>
    </vehicle>
    <vehicle id="veh52" type="passenger" depart="631.35">
        <route edges="-28050856#1 -28050856#0 201771332#1 201771332#2 201771332#3 201771332#4 201771332#5 201771332#6 201771332#7 201771332#8 201771332#9 201771331#0 27184639#0 27184639#1 28330044#2 -28330044#2"/>
    </vehicle>
    <vehicle id="veh53" type="passenger" depart="643.49">
        <route edges="-28330045#3 28330045#3 28330044#0 28330044#1 -27184639#1 -27184639#0 -201771331#0 -201771332#9 -201771332#8 -201771332#7 201771332#7"/>
    </vehicle>
    <vehicle id="veh54" type="passenger" depart="655.63">
        <route edges="-28329414#1 -28329414#0 28330044#1 -27184639#1 -27184639#0 -201771331#0 -201771332#9 28330357#0 28330357#1 28330357#2 28330357#3"/>
    </vehicle>
    <vehicle id="veh55" type="passenger" depart="667.77">
        <route edges="28330062 -27184639#2 -27184639#1 -27184639#0 -201771331#0 -201771332#9 -201771332#8 -201771332#7"/>
    </vehicle>
    <vehicle id="veh56" type="passenger" depart="679.92">
        <route edges="-28329446#0 201771332#5 201771332#6 201771332#7 201771332#8 201771332#9 201771331#0 201771331#1 -28330082#1 -28330082#0 -28330044#6 -27184640#3 -27184640#2 27184640#2"/>
    </vehicle>
    <vehicle id="veh57" type="passenger" depart="692.06">
        <route edges="33152140#2 33152140#3 33152140#4 -28329446#2 -28329446#1 -28329446#0 -201771332#4 201771332#4"/>
    </vehicle>
    <vehicle id="veh58" type="passenger" depart="704.20">
        <route edges="-77056959#4 -28330357#5 -28330357#4 -28330357#3 -28330357#2 -28330357#1 -28330357#0 -201771332#8 -201771332#7 -201771332#6 -201771332#5 28329446#0 28329472#2"/>
    </vehicle>
    <vehicle id="veh59" type="passenger" depart="716.34">
        <route edges="28330044#4 28330044#5 28330044#6 28329441#1 28330082#1 201771331#2 201771331#3 201771331#4 28050853 77056959#0 77056959#1 77056959#2 77056959#3 77056959#4 34909815 28050854#1 -28050854#1"/>
    </vehicle>
    <vehicle id="veh60" type="passenger" depart="728.48">
        <route edges="-27100978#0 201771332#2 201771332#3 201771332#4 201771332#5 201771332#6 201771332#7 201771332#8 201771332#9 201771331#0 27184639#0 28331210#0 -28331210#0"/>
    </vehicle>
    <vehicle id="veh61" type="passenger" depart="740.62">
        <route edges="-33152140#2 33152140#2 33152140#3 33152140#4 33152140#5 -201771332#9 28330357#0 28330357#1 28330357#2 28330357#3 28330357#4 28050854#0 -34909815"/>
    </vehicle>
    <vehicle id="veh62" type="passenger" depart="752.76">
        <route edges="28329446#0 28329446#1 28329446#2 33152140#5 201771331#0 201771331#1 -28330082#1 -28330082#0 -28330044#6 -27184640#3 27184640#3"/>
    </vehicle>
    <vehicle id="veh63" type="passenger" depart="764.90">
        <route edges="77056959#4 -77056959#4 -28330357#5 -28330357#4 -28330357#3 -28330357#2 -28330357#1 -28330357#0 -201771332#8 -201771332#7 -201771332#6 -201771332#5 -201771332#4 -201771332#3 -27100978#1 -27100978#0"/>
    </vehicle>
    <vehicle id="veh64" type="passenger" depart="777.05">
        <route edges="-28330357#5 -28330357#4 -28330357#3 -28330357#2 -28330357#1 -28330357#0 201771332#9 201771331#0 27184639#0 27184639#1 -28330044#1 -28330044#0 -28330045#3 -28330045#2 -28330045#1"/>
    </vehicle>
    <vehicle id="veh65" type="passenger" depart="789.19">
        <route edges="28330062 -27184639#2 -27184639#1 -27184639#0 -201771331#0 -33152140#5 -28329446#2"/>
    </vehicle>
    <vehicle id="veh66" type="passenger" depart="801.33">
        <route edges="-28050854#1 -28050854#0 -28330357#4 -28330357#3 -28330357#2 -28330357#1 -28330357#0 201771332#9 -33152140#5 -33152140#4 -33152140#3 -33152140#2"/>
    </vehicle>
    <vehicle id="veh67" type="passenger" depart="813.47">
        <route edges="-28329446#2 28329446#2 33152140#5 201771331#0 27184639#0 28331210#0 28331210#1"/>
    </vehicle>
    <vehicle id="veh68" type="passenger" depart="825.61">
        <route edges="-34909815 -77056959#4 -77056959#3 -77056959#2 -77056959#1 -77056959#0 -28050853 -201771331#5 -201771331#3 -201771331#2 -201771331#1 27184639#0 27184639#1 -28330044#1 -28330044#0 79423490#1 28330062"/>
    </vehicle>
    <vehicle id="veh69" type="passenger" depart="837.75">
        <route edges="79423490#1 -79423490#1 28330044#0 28330044#1 28330044#2 28330044#4"/>
    </vehicle>
    <vehicle id="veh70" type="passenger" depart="849.89">
        <route edges="77056959#2 -77056959#2 -77056959#1 -77056959#0 -28050853 -201771331#5 -201771331#3 -201771331#2 -28330082#1 -28331210#1 28331210#1"/>
    </vehicle>
    <vehicle id="veh71" type="passenger" depart="862.04">
        <route edges="28330045#2 28330045#3 28330044#0 28330044#1 -27184639#1 -27184639#0 201771331#1 201771331#2 201771331#3 28050849#0 28050849#1 -28050849#1"/>
    </vehicle>
    <vehicle id="veh72" type="passenger" depart="874.18">
        <route edges="-77056959#6 -77056959#5 -77056959#4 -77056959#3 -77056959#2 -77056959#1 -77056959#0 -28050853 -201771331#5 -201771331#3 -201771331#2 -201771331#1 27184639#0 27184639#1 27184639#2 27184639#4 28329365#0 -28329365#0"/>
    </vehicle>
    <vehicle id="veh73" type="passenger" depart="886.32">
        <route edges="-28330357#5 -28330357#4 -28330357#3 -28330357#2 -28330357#1 -28330357#0 -201771332#8 -201771332#7 -201771332#6 -201771332#5"/>
    </vehicle>
    <vehicle id="veh74" type="passenger" depart="898.46">
        <route edges="-28330357#1 28330357#1 28330357#2 28330357#3 28330357#4 28330357#5 77056959#4 77056959#5"/>
    </vehicle>
    <vehicle id="veh75" type="passenger" depart="910.60">
        <route edges="34909815 -28050854#0 -28330357#4 -28330357#3 -28330357#2 -28330357#1 -28330357#0 201771332#9 201771331#0 27184639#0 27184639#1 -28330044#1 -28330044#0 79423490#1"/>
    </vehicle>
    <vehicle id="veh76" type="passenger" depart="922.74">
        <route edges="201771332#6 -201771332#6 -201771332#5 -201771332#4 -201771332#3 -201771332#2 -201771332#1 28050856#0 28050856#1"/>
    </vehicle>
    <vehicle id="veh77" type="passenger" depart="934.88">
        <route edges="-27184640#3 27184640#3 28330044#6 28329441#1 28330082#1 -201771331#1 -201771331#0 -33152140#5 -33152140#4 -33152140#3 -33152140#2 28329491#0 28329491#1 -28329491#1"/>
    </vehicle>
    <vehicle id="veh78" type="passenger" depart="947.02">
        <route edges="77056959#2 -77056959#2 -77056959#1 -77056959#0 -28050853 -201771331#5 -201771331#3 -201771331#2 -201771331#1 -201771331#0 -201771332#9 -201771332#8 -201771332#7 -201771332#6 -201771332#5 201771332#5"/>
    </vehicle>
    <vehicle id="veh79" type="passenger" depart="959.17">
        <route edges="201771332#3 201771332#4 201771332#5 201771332#6 201771332#7 201771332#8 201771332#9 201771331#0 27184639#0 27184639#1 -28330044#1 28329414#0 28329414#1"/>
    </vehicle>
    <vehicle id="veh80" type="passenger" depart="971.31">
        <route edges="-201771332#9 28330357#0 28330357#1 28330357#2 28330357#3 28330357#4 28050854#0 -28050854#0"/>
    </vehicle>
    <vehicle id="veh81" type="passenger" depart="983.45">
        <route edges="27100978#1 201771332#3 201771332#4 201771332#5 201771332#6 201771332#7 201771332#8 201771332#9 201771331#0 201771331#1 -28330082#1 -28330082#0 -28330044#6 -27184640#3 27184640#3"/>
    </vehicle>
    <vehicle id="veh82" type="passenger" depart="995.59">
        <route edges="-28329441#0 27184640#3 -28330044#5 -28330044#4 -28330044#2 -27184639#1 -27184639#0"/>
    </vehicle>
    <vehicle id="veh83" type="passenger" depart="1007.73">
        <route edges="-33152140#2 33152140#2 33152140#3 33152140#4 -28329446#2 -28329446#1 -28329446#0 201771332#5 201771332#6"/>
    </vehicle>
    <vehicle id="veh84" type="passenger" depart="1019.87">
        <route edges="201771331#4 -201771331#5 -201771331#3 -201771331#2 -201771331#1 -201771331#0 -33152140#5 -33152140#4 -33152140#3 -33152140#2 33152140#2"/>
    </vehicle>
    <vehicle id="veh85" type="passenger" depart="1032.01">
        <route edges="-28329446#0 201771332#5 201771332#6 201771332#7 201771332#8 201771332#9 201771331#0 27184639#0 27184639#1 28330044#2 28330044#4 -28330100#2"/>
    </vehicle>
    <vehicle id="veh86" type="passenger" depart="1044.16">
        <route edges="28050853 -28050853 -201771331#5 -201771331#3 -201771331#2 -201771331#1 27184639#0 27184639#1 -28330044#1 -28330044#0"/>
    </vehicle>
    <vehicle id="veh87" type="passenger" depart="1056.30">
        <route edges="-201771332#7 201771332#7 201771332#8 201771332#9 201771331#0 27184639#0 27184639#1 27184639#2 27184639#4 28329365#0 -28329365#0"/>
    </vehicle>
    <vehicle id="veh88" type="passenger" depart="1068.44">
        <route edges="28330045#1 28330045#2 28330045#3 28330044#0 28330044#1 -27184639#1 -27184639#0 -201771331#0 -201771332#9 28330357#0 28330357#1 28330357#2 28330357#3 28330357#4 28050854#0"/>
    </vehicle>
    <vehicle id="veh89" type="passenger" depart="1080.58">
        <route edges="27184639#0 -27184639#0 201771331#1 201771331#2 201771331#3 201771331#4 28050853 77056959#0 77056959#1 77056959#2 77056959#3 77056959#4 77056959#5"/>
    </vehicle>
    <vehicle id="veh90" type="passenger" depart="1092.72">
        <route edges="28330044#6 -28330044#6 -28330044#5 -28330044#4 -28330044#2 -28330044#1 -28330044#0"/>
    </vehicle>
    <vehicle id="veh91" type="passenger" depart="1104.86">
        <route edges="28050849#3 -28050849#3 -28050849#1 -28050849#0 -201771331#3 -201771331#2 -201771331#1 -201771331#0 -33152140#5 -33152140#4 -33152140#3 33152140#3"/>
    </vehicle>
    <vehicle id="veh92" type="passenger" depart="1117.00">
        <route edges="-27184639#4 -27184639#2 -27184639#1 -27184639#0"/>
    </vehicle>
    <vehicle id="veh93" type="passenger" depart="1129.15">
        <route edges="-28329480#0 33152140#3 33152140#4 33152140#5 201771331#0 201771331#1 201771331#2 201771331#3 201771331#4 28050853 77056959#0 77056959#1 234458498"/>
    </vehicle>
    <vehicle id="veh94" type="passenger" depart="1141.29">
        <route edges="28329414#1 28330045#2 28330045#3 28330044#0 28330044#1 -27184639#1 -27184639#0 -201771331#0 -33152140#5 -33152140#4 -33152140#3 -33152140#2 28329491#0 28329491#1 -28050856#1"/>
    </vehicle>
    <vehicle id="veh95" type="passenger" depart="1153.43">
        <route edges="27184640#1 27184640#2 27184640#3 28330044#6 28329441#1 28330082#1 -201771331#1 -201771331#0 -33152140#5 -28329446#2 -28329446#1 28329472#2 -28329472#2"/>
    </vehicle>
    <vehicle id="veh96" type="passenger" depart="1165.57">
        <route edges="-79423490#1 28330044#0 28330044#1 -27184639#1 -27184639#0 -201771331#0 -201771332#9 28330357#0 28330357#1 28330357#2 28330357#3"/>
    </vehicle>
    <vehicle id="veh97" type="passenger" depart="1177.71">
        <route edges="28330045#1 28330045#2 28330045#3 28330044#0 28330044#1 -27184639#1 -27184639#0 201771331#1 201771331#2 201771331#3 28050849#0 28050849#1 -234458499"/>
    </vehicle>
    <vehicle id="veh98" type="passenger" depart="1189.85">
        <route edges="-115750415 -77056959#5 -77056959#4 -77056959#3 -77056959#2 -77056959#1 -77056959#0 -28050853 -201771331#5 -201771331#3 -201771331#2 -201771331#1 -201771331#0 -33152140#5 -33152140#4 28329472#0"/>
    </vehicle>
    <vehicle id="veh99" type="passenger" depart="1201.99">
        <route edges="27184640#1 27184640#2 27184640#3 28330044#6 28329441#1 28330082#1 -201771331#1 -201771331#0 -33152140#5 -28329446#2 -28329446#1 28329472#2 -28329472#2"/>
    </vehicle>
    <vehicle id="veh100" type="passenger" depart="1214.13">
        <route edges="28329446#2 -28329446#2 -28329446#1 -28329446#0 -201771332#4 -201771332#3 -201771332#2 -201771332#1 -201771332#0 201771332#0"/>
    </vehicle>
    <vehicle id="veh101" type="passenger" depart="1226.28">
        <route edges="-201771332#8 201771332#8 201771332#9 201771331#0 27184639#0 27184639#1 27184639#2 28330100#0 28330100#1 28330100#2"/>
    </vehicle>
    <vehicle id="veh102" type="passenger" depart="1238.42">
        <route edges="28330357#3 -28050849#4 -28050849#3 -28050849#1 -28050849#0 201771331#4"/>
    </vehicle>
    <vehicle id="veh103" type="passenger" depart="1250.56">
        <route edges="-28330044#1 28330044#1 -27184639#1 -27184639#0 -201771331#0 -201771332#9 28330357#0 28330357#1 28330357#2"/>
    </vehicle>
    <vehicle id="veh104" type="passenger" depart="1262.70">
        <route edges="28330357#2 -28330357#2 -28330357#1 -28330357#0 201771332#9 201771331#0 27184639#0 27184639#1 27184639#2 27184639#4 28329365#0 -28329365#0"/>
    </vehicle>
    <vehicle id="veh105" type="passenger" depart="1274.84">
        <route edges="28329491#0 -28329491#0 33152140#2 33152140#3 33152140#4 33152140#5 201771331#0 27184639#0 27184639#1 27184639#2 28330100#0 28330100#1 28330100#2"/>
    </vehicle>
    <vehicle id="veh106" type="passenger" depart="1286.98">
        <route edges="-28331210#0 -27184639#0 -201771331#0 -201771332#9 -201771332#8 -201771332#7 -201771332#6 -201771332#5 -201771332#4 -201771332#3 -27100978#1 27100978#1"/>
    </vehicle>
    <vehicle id="veh107" type="passenger" depart="1299.12">
        <route edges="-27184640#3 27184640#3 28330044#6 28329441#1 28330082#1 -201771331#1 -201771331#0 -33152140#5 -33152140#4 -33152140#3 -33152140#2 -33152140#1 33152140#1"/>
    </vehicle>
    <vehicle id="veh108" type="passenger" depart="1311.27">
        <route edges="28330082#1 201771331#2 201771331#3 201771331#4 28050853 77056959#0 77056959#1 77056959#2 77056959#3"/>
    </vehicle>
    <vehicle id="veh109" type="passenger" depart="1323.41">
        <route edges="-201771331#3 -201771331#2 -201771331#1 27184639#0 27184639#1 27184639#2 27184639#4 28329365#0 28329365#1"/>
    </vehicle>
    <vehicle id="veh110" type="passenger" depart="1335.55">
        <route edges="28330044#4 -28330044#4 -28330044#2 -27184639#1 -27184639#0 -201771331#0 -33152140#5 -28329446#2 -28329446#1 28329472#2 -28329472#2"/>
    </vehicle>
    <vehicle id="veh111" type="passenger" depart="1347.69">
        <route edges="28329491#1 -28050856#1 -28050856#0 201771332#1 201771332#2 201771332#3 -27100998#1"/>
    </vehicle>
    <vehicle id="veh112" type="passenger" depart="1359.83">
        <route edges="-28329414#0 28330044#1 -27184639#1 -27184639#0 -201771331#0 -33152140#5 -33152140#4 -33152140#3 -33152140#2 28329491#0 28329491#1"/>
    </vehicle>
    <vehicle id="veh113" type="passenger" depart="1371.97">
        <route edges="-77056959#1 -77056959#0 -28050853 -201771331#5 -201771331#3 -201771331#2 -201771331#1 27184639#0 27184639#1 -28330044#1"/>
    </vehicle>
    <vehicle id="veh114" type="passenger" depart="1384.11">
        <route edges="-201771331#3 201771331#3 201771331#4 28050853 77056959#0 77056959#1 77056959#2 77056959#3 77056959#4 34909815 28050854#1 -28050854#1"/>
    </vehicle>
    <vehicle id="veh115" type="passenger" depart="1396.25">
        <route edges="77056959#1 -77056959#1 -77056959#0 -28050853 -201771331#5 -201771331#3 -201771331#2 -201771331#1 -201771331#0 -33152140#5 -33152140#4 -33152140#3 28329480#0 28329480#1 -28329480#1"/>
    </vehicle>
    <vehicle id="veh116" type="passenger" depart="1408.40">
        <route edges="27184640#2 27184640#3 28330044#6 28329441#1 28330082#1 -201771331#1 -201771331#0 -201771332#9 28330357#0 -28330357#0"/>
    </vehicle>
    <vehicle id="veh117" type="passenger" depart="1420.54">
        <route edges="77056959#4 -77056959#4 -77056959#3 -77056959#2 -77056959#1 -77056959#0 -28050853 -201771331#5 -201771331#3 -201771331#2 201771331#2"/>
    </vehicle>
    <vehicle id="veh118" type="passenger" depart="1432.68">
        <route edges="33152140#3 33152140#4 33152140#5 201771331#0 27184639#0 -27184639#0"/>
    </vehicle>
    <vehicle id="veh119" type="passenger" depart="1444.82">
        <route edges="77056959#0 -77056959#0 -28050853 -201771331#5 -201771331#3 -201771331#2 -201771331#1 -201771331#0 -33152140#5 -28329446#2 -28329446#1 28329472#2 -28329472#2"/>
    </vehicle>
    <vehicle id="veh120" type="passenger" depart="1456.96">
        <route edges="-27100998#1 27100998#1 201771332#4 201771332#5 201771332#6 201771332#7 201771332#8 201771332#9 201771331#0 201771331#1 -28330082#1 -28331210#1"/>
    </vehicle>
    <vehicle id="veh121" type="passenger" depart="1469.10">
        <route edges="28329446#0 28329446#1 28329446#2 33152140#5 201771331#0 27184639#0 27184639#1 28330044#2 -28330044#2"/>
    </vehicle>
    <vehicle id="veh122" type="passenger" depart="1481.24">
        <route edges="27101016 27100998#1 201771332#4 201771332#5 201771332#6 201771332#7 201771332#8 28330357#0 28330357#1 28330357#2 28330357#3 28330357#4 28050854#0 28050854#1 -77056959#6"/>
    </vehicle>
    <vehicle id="veh123" type="passenger" depart="1493.39">