<?xml version="1.0" encoding="UTF-8"?>

<!-- generated on 22.10.2017 17:26:29 by Netedit Version 0.31.0
<?xml version="1.0" encoding="UTF-8"?>

<configuration xmlns:xsi="http://www.w3.org/2001/XMLSchema-instance" xsi:noNamespaceSchemaLocation="http://sumo.dlr.de/xsd/netconvertConfiguration.xsd">

    <input>
        <sumo-net-file value="E:\Eigene_Dateien\Studium\Master_Informatik\8.%20Semester\Projekt\SUMO\Oberstimm\oberstimm.net.xml"/>
    </input>

    <output>
        <output-file value="E:\Eigene_Dateien\Studium\Master_Informatik\8.%20Semester\Projekt\SUMO\Oberstimm\oberstimm.net.xml"/>
        <output.street-names value="true"/>
    </output>

    <processing>
        <no-turnarounds value="true"/>
        <offset.disable-normalization value="true"/>
        <lefthand value="false"/>
        <junctions.corner-detail value="5"/>
        <rectangular-lane-cut value="false"/>
        <walkingareas value="false"/>
    </processing>

</configuration>
-->

<net version="0.27" junctionCornerDetail="5" xmlns:xsi="http://www.w3.org/2001/XMLSchema-instance" xsi:noNamespaceSchemaLocation="http://sumo.dlr.de/xsd/net_file.xsd">

    <location netOffset="-680142.76,-5397439.55" convBoundary="167.37,498.75,1014.56,1439.26" origBoundary="11.445468,48.703801,11.466383,48.728049" projParameter="+proj=utm +zone=32 +ellps=WGS84 +datum=WGS84 +units=m +no_defs"/>

    <type id="highway.bridleway" priority="1" numLanes="1" speed="2.78" allow="pedestrian" oneway="1" width="2.00"/>
    <type id="highway.bus_guideway" priority="1" numLanes="1" speed="8.33" allow="bus" oneway="1"/>
    <type id="highway.cycleway" priority="1" numLanes="1" speed="5.56" allow="bicycle" oneway="0" width="1.00"/>
    <type id="highway.footway" priority="1" numLanes="1" speed="2.78" allow="pedestrian" oneway="1" width="2.00"/>
    <type id="highway.ford" priority="1" numLanes="1" speed="2.78" allow="army" oneway="0"/>
    <type id="highway.living_street" priority="3" numLanes="1" speed="2.78" disallow="tram rail_urban rail rail_electric ship" oneway="0"/>
    <type id="highway.motorway" priority="13" numLanes="2" speed="44.44" allow="private emergency authority army vip passenger hov taxi bus coach delivery truck trailer motorcycle evehicle custom1 custom2" oneway="1"/>
    <type id="highway.motorway_link" priority="12" numLanes="1" speed="22.22" allow="private emergency authority army vip passenger hov taxi bus coach delivery truck trailer motorcycle evehicle custom1 custom2" oneway="1"/>
    <type id="highway.path" priority="1" numLanes="1" speed="2.78" allow="bicycle pedestrian" oneway="1" width="2.00"/>
    <type id="highway.pedestrian" priority="1" numLanes="1" speed="2.78" allow="pedestrian" oneway="1" width="2.00"/>
    <type id="highway.primary" priority="9" numLanes="2" speed="27.78" disallow="tram rail_urban rail rail_electric ship" oneway="0"/>
    <type id="highway.primary_link" priority="8" numLanes="1" speed="22.22" disallow="tram rail_urban rail rail_electric ship" oneway="0"/>
    <type id="highway.raceway" priority="14" numLanes="2" speed="83.33" allow="vip" oneway="0"/>
    <type id="highway.residential" priority="4" numLanes="1" speed="13.89" disallow="tram rail_urban rail rail_electric ship" oneway="0"/>
    <type id="highway.secondary" priority="7" numLanes="2" speed="27.78" disallow="tram rail_urban rail rail_electric ship" oneway="0"/>
    <type id="highway.secondary_link" priority="6" numLanes="1" speed="22.22" disallow="tram rail_urban rail rail_electric ship" oneway="0"/>
    <type id="highway.service" priority="2" numLanes="1" speed="5.56" allow="delivery bicycle pedestrian" oneway="0"/>
    <type id="highway.services" priority="1" numLanes="1" speed="8.33" disallow="tram rail_urban rail rail_electric ship" oneway="0"/>
    <type id="highway.stairs" priority="1" numLanes="1" speed="1.39" allow="pedestrian" oneway="1" width="2.00"/>
    <type id="highway.step" priority="1" numLanes="1" speed="1.39" allow="pedestrian" oneway="1" width="2.00"/>
    <type id="highway.steps" priority="1" numLanes="1" speed="1.39" allow="pedestrian" oneway="1" width="2.00"/>
    <type id="highway.tertiary" priority="6" numLanes="1" speed="22.22" disallow="tram rail_urban rail rail_electric ship" oneway="0"/>
    <type id="highway.tertiary_link" priority="5" numLanes="1" speed="22.22" disallow="tram rail_urban rail rail_electric ship" oneway="0"/>
    <type id="highway.track" priority="1" numLanes="1" speed="5.56" disallow="tram rail_urban rail rail_electric ship" oneway="0"/>
    <type id="highway.trunk" priority="11" numLanes="2" speed="27.78" disallow="tram rail_urban rail rail_electric bicycle pedestrian ship" oneway="0"/>
    <type id="highway.trunk_link" priority="10" numLanes="1" speed="22.22" disallow="tram rail_urban rail rail_electric bicycle pedestrian ship" oneway="0"/>
    <type id="highway.unclassified" priority="5" numLanes="1" speed="13.89" disallow="tram rail_urban rail rail_electric ship" oneway="0"/>
    <type id="highway.unsurfaced" priority="1" numLanes="1" speed="8.33" disallow="tram rail_urban rail rail_electric ship" oneway="0"/>
    <type id="railway.light_rail" priority="15" numLanes="1" speed="27.78" allow="rail_urban" oneway="1"/>
    <type id="railway.preserved" priority="15" numLanes="1" speed="27.78" allow="rail" oneway="1"/>
    <type id="railway.rail" priority="15" numLanes="1" speed="83.33" allow="rail rail_electric" oneway="1"/>
    <type id="railway.subway" priority="15" numLanes="1" speed="27.78" allow="rail_urban" oneway="1"/>
    <type id="railway.tram" priority="15" numLanes="1" speed="13.89" allow="tram" oneway="1"/>

    <edge id=":1616205006_0" function="internal">
        <lane id=":1616205006_0_0" index="0" disallow="tram rail_urban rail rail_electric ship" speed="13.89" length="8.70" shape="534.85,756.08 533.93,758.49 533.35,760.17 532.91,761.88 532.39,764.41"/>
    </edge>
    <edge id=":1616205006_1" function="internal">
        <lane id=":1616205006_1_0" index="0" disallow="tram rail_urban rail rail_electric ship" speed="13.89" length="5.19" shape="534.85,756.08 533.46,758.57 531.61,760.01"/>
    </edge>
    <edge id=":1616205006_2" function="internal">
        <lane id=":1616205006_2_0" index="0" disallow="tram rail_urban rail rail_electric ship" speed="13.89" length="2.41" shape="534.85,756.08 533.63,756.94 532.72,757.03"/>
    </edge>
    <edge id=":1616205006_9" function="internal">
        <lane id=":1616205006_9_0" index="0" speed="13.89" length="5.19" shape="531.61,760.01 529.30,760.39 526.53,759.72"/>
    </edge>
    <edge id=":1616205006_10" function="internal">
        <lane id=":1616205006_10_0" index="0" speed="13.89" length="2.41" shape="532.72,757.03 532.09,756.35 531.77,754.90"/>
    </edge>
    <edge id=":1616205006_3" function="internal">
        <lane id=":1616205006_3_0" index="0" disallow="tram rail_urban rail rail_electric ship" speed="13.89" length="5.01" shape="527.75,756.65 529.09,756.98 530.20,756.79 531.10,756.10 531.77,754.90"/>
    </edge>
    <edge id=":1616205006_4" function="internal">
        <lane id=":1616205006_4_0" index="0" disallow="tram rail_urban rail rail_electric ship" speed="13.89" length="9.93" shape="527.75,756.65 530.19,757.99 531.77,759.73 532.50,761.87 532.39,764.41"/>
    </edge>
    <edge id=":1616205006_5" function="internal">
        <lane id=":1616205006_5_0" index="0" disallow="tram rail_urban rail rail_electric ship" speed="13.89" length="4.82" shape="527.75,756.65 528.59,757.88 528.67,758.80 527.98,759.41 526.53,759.72"/>
    </edge>
    <edge id=":1616205006_6" function="internal">
        <lane id=":1616205006_6_0" index="0" disallow="tram rail_urban rail rail_electric ship" speed="13.89" length="5.29" shape="529.15,763.76 529.19,762.47 528.77,761.36 527.88,760.45 526.53,759.72"/>
    </edge>
    <edge id=":1616205006_7" function="internal">
        <lane id=":1616205006_7_0" index="0" disallow="tram rail_urban rail rail_electric ship" speed="13.89" length="9.26" shape="529.15,763.76 529.71,761.07 530.18,759.25 530.79,757.46 531.77,754.90"/>
    </edge>
    <edge id=":1616205006_8" function="internal">
        <lane id=":1616205006_8_0" index="0" disallow="tram rail_urban rail rail_electric ship" speed="13.89" length="2.41" shape="529.15,763.76 530.20,762.71 531.09,762.47"/>
    </edge>
    <edge id=":1616205006_11" function="internal">
        <lane id=":1616205006_11_0" index="0" speed="13.89" length="2.41" shape="531.09,762.47 531.82,763.03 532.39,764.41"/>
    </edge>
    <edge id=":1848837086_0" function="internal">
        <lane id=":1848837086_0_0" index="0" disallow="tram rail_urban rail rail_electric ship" speed="13.89" length="0.29" shape="469.00,582.90 468.72,582.81"/>
    </edge>
    <edge id=":1848837086_1" function="internal">
        <lane id=":1848837086_1_0" index="0" disallow="tram rail_urban rail rail_electric ship" speed="13.89" length="2.41" shape="469.00,582.90 468.04,581.76 467.88,580.85"/>
    </edge>
    <edge id=":1848837086_4" function="internal">
        <lane id=":1848837086_4_0" index="0" speed="13.89" length="2.41" shape="467.88,580.85 468.51,580.17 469.93,579.73"/>
    </edge>
    <edge id=":1848837086_2" function="internal">
        <lane id=":1848837086_2_0" index="0" disallow="tram rail_urban rail rail_electric ship" speed="13.89" length="0.31" shape="469.63,579.64 469.93,579.73"/>
    </edge>
    <edge id=":1848837086_3" function="internal">
        <lane id=":1848837086_3_0" index="0" disallow="tram rail_urban rail rail_electric ship" speed="13.89" length="2.41" shape="469.63,579.64 470.59,580.78 470.76,581.69"/>
    </edge>
    <edge id=":1848837086_5" function="internal">
        <lane id=":1848837086_5_0" index="0" speed="13.89" length="2.41" shape="470.76,581.69 470.14,582.36 468.72,582.81"/>
    </edge>
    <edge id=":2427087578_0" function="internal">
        <lane id=":2427087578_0_0" index="0" disallow="tram rail_urban rail rail_electric ship" speed="13.89" length="0.10" shape="706.95,558.76 706.95,558.76"/>
    </edge>
    <edge id=":2427087578_1" function="internal">
        <lane id=":2427087578_1_0" index="0" disallow="tram rail_urban rail rail_electric ship" speed="13.89" length="2.41" shape="706.95,558.76 705.97,557.65 705.79,556.74"/>
    </edge>
    <edge id=":2427087578_4" function="internal">
        <lane id=":2427087578_4_0" index="0" speed="13.89" length="2.41" shape="705.79,556.74 706.40,556.05 707.81,555.58"/>
    </edge>
    <edge id=":2427087578_2" function="internal">
        <lane id=":2427087578_2_0" index="0" disallow="tram rail_urban rail rail_electric ship" speed="13.89" length="0.10" shape="707.81,555.58 707.81,555.58"/>
    </edge>
    <edge id=":2427087578_3" function="internal">
        <lane id=":2427087578_3_0" index="0" disallow="tram rail_urban rail rail_electric ship" speed="13.89" length="2.41" shape="707.81,555.58 708.79,556.69 708.97,557.60"/>
    </edge>
    <edge id=":2427087578_5" function="internal">
        <lane id=":2427087578_5_0" index="0" speed="13.89" length="2.41" shape="708.97,557.60 708.36,558.29 706.95,558.76"/>
    </edge>
    <edge id=":2427087580_0" function="internal">
        <lane id=":2427087580_0_0" index="0" disallow="tram rail_urban rail rail_electric ship" speed="13.89" length="0.30" shape="393.75,563.69 393.49,563.84"/>
    </edge>
    <edge id=":2427087580_1" function="internal">
        <lane id=":2427087580_1_0" index="0" disallow="tram rail_urban rail rail_electric ship" speed="13.89" length="2.41" shape="393.75,563.69 392.26,563.60 391.49,563.09"/>
    </edge>
    <edge id=":2427087580_4" function="internal">
        <lane id=":2427087580_4_0" index="0" speed="13.89" length="2.41" shape="391.49,563.09 391.44,562.17 392.09,560.84"/>
    </edge>
    <edge id=":2427087580_2" function="internal">
        <lane id=":2427087580_2_0" index="0" disallow="tram rail_urban rail rail_electric ship" speed="13.89" length="0.30" shape="391.83,560.99 392.09,560.84"/>
    </edge>
    <edge id=":2427087580_3" function="internal">
        <lane id=":2427087580_3_0" index="0" disallow="tram rail_urban rail rail_electric ship" speed="13.89" length="2.41" shape="391.83,560.99 393.32,561.08 394.09,561.59"/>
    </edge>
    <edge id=":2427087580_5" function="internal">
        <lane id=":2427087580_5_0" index="0" speed="13.89" length="2.41" shape="394.09,561.59 394.14,562.51 393.49,563.84"/>
    </edge>
    <edge id=":2427087588_0" function="internal">
        <lane id=":2427087588_0_0" index="0" disallow="tram rail_urban rail rail_electric ship" speed="13.89" length="0.30" shape="760.03,718.37 759.85,718.13"/>
    </edge>
    <edge id=":2427087588_1" function="internal">
        <lane id=":2427087588_1_0" index="0" disallow="tram rail_urban rail rail_electric ship" speed="13.89" length="2.41" shape="760.03,718.37 759.96,716.89 760.39,716.07"/>
    </edge>
    <edge id=":2427087588_4" function="internal">
        <lane id=":2427087588_4_0" index="0" speed="13.89" length="2.41" shape="760.39,716.07 761.30,715.92 762.69,716.43"/>
    </edge>
    <edge id=":2427087588_2" function="internal">
        <lane id=":2427087588_2_0" index="0" disallow="tram rail_urban rail rail_electric ship" speed="13.89" length="0.30" shape="762.52,716.19 762.69,716.43"/>
    </edge>
    <edge id=":2427087588_3" function="internal">
        <lane id=":2427087588_3_0" index="0" disallow="tram rail_urban rail rail_electric ship" speed="13.89" length="2.41" shape="762.52,716.19 762.58,717.67 762.15,718.49"/>
    </edge>
    <edge id=":2427087588_5" function="internal">
        <lane id=":2427087588_5_0" index="0" speed="13.89" length="2.41" shape="762.15,718.49 761.24,718.64 759.85,718.13"/>
    </edge>
    <edge id=":2427087589_0" function="internal">
        <lane id=":2427087589_0_0" index="0" disallow="tram rail_urban rail rail_electric ship" speed="13.89" length="0.10" shape="669.40,768.07 669.40,768.07"/>
    </edge>
    <edge id=":2427087589_1" function="internal">
        <lane id=":2427087589_1_0" index="0" disallow="tram rail_urban rail rail_electric ship" speed="13.89" length="2.41" shape="669.40,768.07 668.33,767.04 668.07,766.16"/>
    </edge>
    <edge id=":2427087589_4" function="internal">
        <lane id=":2427087589_4_0" index="0" speed="13.89" length="2.41" shape="668.07,766.16 668.62,765.42 669.98,764.83"/>
    </edge>
    <edge id=":2427087589_2" function="internal">
        <lane id=":2427087589_2_0" index="0" disallow="tram rail_urban rail rail_electric ship" speed="13.89" length="0.10" shape="669.98,764.83 669.98,764.83"/>
    </edge>
    <edge id=":2427087589_3" function="internal">
        <lane id=":2427087589_3_0" index="0" disallow="tram rail_urban rail rail_electric ship" speed="13.89" length="2.41" shape="669.98,764.83 671.05,765.86 671.31,766.74"/>
    </edge>
    <edge id=":2427087589_5" function="internal">
        <lane id=":2427087589_5_0" index="0" speed="13.89" length="2.41" shape="671.31,766.74 670.76,767.48 669.40,768.07"/>
    </edge>
    <edge id=":2427087607_0" function="internal">
        <lane id=":2427087607_0_0" index="0" disallow="tram rail_urban rail rail_electric ship" speed="13.89" length="9.52" shape="178.51,899.97 177.13,890.54"/>
    </edge>
    <edge id=":2427087607_1" function="internal">
        <lane id=":2427087607_1_0" index="0" disallow="tram rail_urban rail rail_electric ship" speed="13.89" length="10.65" shape="178.51,899.97 178.48,897.02 179.41,894.83 181.31,893.40 184.17,892.72"/>
    </edge>
    <edge id=":2427087607_2" function="internal">
        <lane id=":2427087607_2_0" index="0" disallow="tram rail_urban rail rail_electric ship" speed="13.89" length="4.82" shape="178.51,899.97 179.13,898.62 179.89,898.08 180.76,898.36 181.77,899.46"/>
    </edge>
    <edge id=":2427087607_3" function="internal">
        <lane id=":2427087607_3_0" index="0" disallow="tram rail_urban rail rail_electric ship" speed="13.89" length="5.08" shape="184.47,896.01 183.10,896.33 182.20,897.01 181.75,898.06 181.77,899.46"/>
    </edge>
    <edge id=":2427087607_4" function="internal">
        <lane id=":2427087607_4_0" index="0" disallow="tram rail_urban rail rail_electric ship" speed="13.89" length="10.40" shape="184.47,896.01 181.50,895.89 179.28,894.94 177.82,893.16 177.13,890.54"/>
    </edge>
    <edge id=":2427087607_5" function="internal">
        <lane id=":2427087607_5_0" index="0" disallow="tram rail_urban rail rail_electric ship" speed="13.89" length="4.82" shape="184.47,896.01 183.16,895.30 182.68,894.51 183.02,893.65 184.17,892.72"/>
    </edge>
    <edge id=":2427087607_6" function="internal">
        <lane id=":2427087607_6_0" index="0" disallow="tram rail_urban rail rail_electric ship" speed="13.89" length="5.25" shape="180.39,890.05 180.75,891.33 181.49,892.21 182.64,892.67 184.17,892.72"/>
    </edge>
    <edge id=":2427087607_7" function="internal">
        <lane id=":2427087607_7_0" index="0" disallow="tram rail_urban rail rail_electric ship" speed="13.89" length="9.51" shape="180.39,890.05 181.77,899.46"/>
    </edge>
    <edge id=":2427087607_8" function="internal">
        <lane id=":2427087607_8_0" index="0" disallow="tram rail_urban rail rail_electric ship" speed="13.89" length="4.82" shape="180.39,890.05 179.76,891.40 179.01,891.93 178.13,891.64 177.13,890.54"/>
    </edge>
    <edge id=":2427087616_0" function="internal">
        <lane id=":2427087616_0_0" index="0" disallow="tram rail_urban rail rail_electric ship" speed="13.89" length="0.30" shape="834.49,999.17 834.40,999.46"/>
    </edge>
    <edge id=":2427087616_1" function="internal">
        <lane id=":2427087616_1_0" index="0" disallow="tram rail_urban rail rail_electric ship" speed="13.89" length="2.41" shape="834.49,999.17 833.35,1000.13 832.45,1000.30"/>
    </edge>
    <edge id=":2427087616_4" function="internal">
        <lane id=":2427087616_4_0" index="0" speed="13.89" length="2.41" shape="832.45,1000.30 831.77,999.68 831.32,998.26"/>
    </edge>
    <edge id=":2427087616_2" function="internal">
        <lane id=":2427087616_2_0" index="0" disallow="tram rail_urban rail rail_electric ship" speed="13.89" length="0.30" shape="831.23,998.55 831.32,998.26"/>
    </edge>
    <edge id=":2427087616_3" function="internal">
        <lane id=":2427087616_3_0" index="0" disallow="tram rail_urban rail rail_electric ship" speed="13.89" length="2.41" shape="831.23,998.55 832.37,997.59 833.28,997.42"/>
    </edge>
    <edge id=":2427087616_5" function="internal">
        <lane id=":2427087616_5_0" index="0" speed="13.89" length="2.41" shape="833.28,997.42 833.95,998.04 834.40,999.46"/>
    </edge>
    <edge id=":2427087618_0" function="internal">
        <lane id=":2427087618_0_0" index="0" disallow="tram rail_urban rail rail_electric ship" speed="11.11" length="5.09" shape="258.94,993.28 258.39,992.04 257.55,991.26 256.42,990.95 255.01,991.11"/>
    </edge>
    <edge id=":2427087618_1" function="internal">
        <lane id=":2427087618_1_0" index="0" disallow="tram rail_urban rail rail_electric ship" speed="8.33" length="9.50" shape="258.94,993.28 256.40,984.12"/>
    </edge>
    <edge id=":2427087618_2" function="internal">
        <lane id=":2427087618_2_0" index="0" disallow="tram rail_urban rail rail_electric ship" speed="8.33" length="4.82" shape="258.94,993.28 259.40,991.87 260.09,991.25 260.99,991.43 262.12,992.40"/>
    </edge>
    <edge id=":2427087618_3" function="internal">
        <lane id=":2427087618_3_0" index="0" disallow="tram rail_urban rail rail_electric ship" speed="8.33" length="9.50" shape="259.58,983.24 262.12,992.40"/>
    </edge>
    <edge id=":2427087618_4" function="internal">
        <lane id=":2427087618_4_0" index="0" disallow="tram rail_urban rail rail_electric ship" speed="11.11" length="10.44" shape="259.58,983.24 259.95,986.09 259.31,988.35 257.66,990.02 255.01,991.11"/>
    </edge>
    <edge id=":2427087618_5" function="internal">
        <lane id=":2427087618_5_0" index="0" disallow="tram rail_urban rail rail_electric ship" speed="8.33" length="4.82" shape="259.58,983.24 259.12,984.65 258.43,985.27 257.53,985.09 256.40,984.12"/>
    </edge>
    <edge id=":2427087618_6" function="internal">
        <lane id=":2427087618_6_0" index="0" disallow="tram rail_urban rail rail_electric ship" speed="11.11" length="5.03" shape="254.20,987.91 255.48,987.39 256.27,986.58 256.58,985.49 256.40,984.12"/>
    </edge>
    <edge id=":2427087618_7" function="internal">
        <lane id=":2427087618_7_0" index="0" disallow="tram rail_urban rail rail_electric ship" speed="11.11" length="10.33" shape="254.20,987.91 257.03,987.60 259.30,988.25 260.99,989.84 262.12,992.40"/>
    </edge>
    <edge id=":2427087618_8" function="internal">
        <lane id=":2427087618_8_0" index="0" disallow="tram rail_urban rail rail_electric ship" speed="13.89" length="4.82" shape="254.20,987.91 255.60,988.41 256.20,989.11 256.01,990.01 255.01,991.11"/>
    </edge>
    <edge id=":2427087623_0" function="internal">
        <lane id=":2427087623_0_0" index="0" disallow="tram rail_urban rail rail_electric ship" speed="8.33" length="0.10" shape="427.50,1006.48 427.50,1006.48"/>
    </edge>
    <edge id=":2427087623_1" function="internal">
        <lane id=":2427087623_1_0" index="0" disallow="tram rail_urban rail rail_electric ship" speed="8.33" length="2.41" shape="427.50,1006.48 426.36,1005.53 426.04,1004.66"/>
    </edge>
    <edge id=":2427087623_4" function="internal">
        <lane id=":2427087623_4_0" index="0" speed="8.33" length="2.41" shape="426.04,1004.66 426.54,1003.89 427.86,1003.20"/>
    </edge>
    <edge id=":2427087623_2" function="internal">
        <lane id=":2427087623_2_0" index="0" disallow="tram rail_urban rail rail_electric ship" speed="8.33" length="0.10" shape="427.86,1003.20 427.86,1003.20"/>
    </edge>
    <edge id=":2427087623_3" function="internal">
        <lane id=":2427087623_3_0" index="0" disallow="tram rail_urban rail rail_electric ship" speed="8.33" length="2.41" shape="427.86,1003.20 429.00,1004.15 429.32,1005.02"/>
    </edge>
    <edge id=":2427087623_5" function="internal">
        <lane id=":2427087623_5_0" index="0" speed="8.33" length="2.41" shape="429.32,1005.02 428.82,1005.79 427.50,1006.48"/>
    </edge>
    <edge id=":2427087625_0" function="internal">
        <lane id=":2427087625_0_0" index="0" disallow="tram rail_urban rail rail_electric ship" speed="8.33" length="0.30" shape="450.44,1008.96 450.14,1008.92"/>
    </edge>
    <edge id=":2427087625_1" function="internal">
        <lane id=":2427087625_1_0" index="0" disallow="tram rail_urban rail rail_electric ship" speed="8.33" length="2.41" shape="450.44,1008.96 449.30,1008.00 448.98,1007.14"/>
    </edge>
    <edge id=":2427087625_4" function="internal">
        <lane id=":2427087625_4_0" index="0" speed="8.33" length="2.41" shape="448.98,1007.14 449.48,1006.36 450.80,1005.68"/>
    </edge>
    <edge id=":2427087625_2" function="internal">
        <lane id=":2427087625_2_0" index="0" disallow="tram rail_urban rail rail_electric ship" speed="8.33" length="0.30" shape="450.50,1005.64 450.80,1005.68"/>
    </edge>
    <edge id=":2427087625_3" function="internal">
        <lane id=":2427087625_3_0" index="0" disallow="tram rail_urban rail rail_electric ship" speed="8.33" length="2.41" shape="450.50,1005.64 451.64,1006.60 451.96,1007.46"/>
    </edge>
    <edge id=":2427087625_5" function="internal">
        <lane id=":2427087625_5_0" index="0" speed="8.33" length="2.41" shape="451.96,1007.46 451.46,1008.24 450.14,1008.92"/>
    </edge>
    <edge id=":2427087626_0" function="internal">
        <lane id=":2427087626_0_0" index="0" disallow="tram rail_urban rail rail_electric ship" speed="13.89" length="9.50" shape="198.52,1008.53 196.33,999.28"/>
    </edge>
    <edge id=":2427087626_1" function="internal">
        <lane id=":2427087626_1_0" index="0" disallow="tram rail_urban rail rail_electric ship" speed="13.89" length="10.33" shape="198.52,1008.53 198.27,1005.74 198.98,1003.52 200.66,1001.88 203.29,1000.80"/>
    </edge>
    <edge id=":2427087626_2" function="internal">
        <lane id=":2427087626_2_0" index="0" disallow="tram rail_urban rail rail_electric ship" speed="13.89" length="4.82" shape="198.52,1008.53 199.03,1007.14 199.74,1006.55 200.64,1006.76 201.73,1007.77"/>
    </edge>
    <edge id=":2427087626_3" function="internal">
        <lane id=":2427087626_3_0" index="0" disallow="tram rail_urban rail rail_electric ship" speed="13.89" length="5.07" shape="204.10,1004.00 202.80,1004.53 201.97,1005.33 201.61,1006.42 201.73,1007.77"/>
    </edge>
    <edge id=":2427087626_4" function="internal">
        <lane id=":2427087626_4_0" index="0" disallow="tram rail_urban rail rail_electric ship" speed="13.89" length="10.40" shape="204.10,1004.00 201.26,1004.30 199.02,1003.62 197.37,1001.94 196.33,999.28"/>
    </edge>
    <edge id=":2427087626_5" function="internal">
        <lane id=":2427087626_5_0" index="0" disallow="tram rail_urban rail rail_electric ship" speed="13.89" length="4.82" shape="204.10,1004.00 202.70,1003.50 202.10,1002.81 202.29,1001.91 203.29,1000.80"/>
    </edge>
    <edge id=":2427087626_6" function="internal">
        <lane id=":2427087626_6_0" index="0" disallow="tram rail_urban rail rail_electric ship" speed="13.89" length="5.02" shape="199.54,998.53 200.05,999.81 200.84,1000.62 201.92,1000.95 203.29,1000.80"/>
    </edge>
    <edge id=":2427087626_7" function="internal">
        <lane id=":2427087626_7_0" index="0" disallow="tram rail_urban rail rail_electric ship" speed="13.89" length="9.50" shape="199.54,998.53 201.73,1007.77"/>
    </edge>
    <edge id=":2427087626_8" function="internal">
        <lane id=":2427087626_8_0" index="0" disallow="tram rail_urban rail rail_electric ship" speed="13.89" length="4.82" shape="199.54,998.53 199.02,999.92 198.32,1000.51 197.42,1000.30 196.33,999.28"/>
    </edge>
    <edge id=":2427087641_0" function="internal">
        <lane id=":2427087641_0_0" index="0" disallow="tram rail_urban rail rail_electric ship" speed="22.22" length="0.30" shape="520.06,1033.55 520.02,1033.25"/>
    </edge>
    <edge id=":2427087641_1" function="internal">
        <lane id=":2427087641_1_0" index="0" disallow="tram rail_urban rail rail_electric ship" speed="22.22" length="2.41" shape="520.06,1033.55 520.70,1032.20 521.45,1031.68"/>
    </edge>
    <edge id=":2427087641_4" function="internal">
        <lane id=":2427087641_4_0" index="0" speed="22.22" length="2.41" shape="521.45,1031.68 522.33,1031.96 523.32,1033.07"/>
    </edge>
    <edge id=":2427087641_2" function="internal">
        <lane id=":2427087641_2_0" index="0" disallow="tram rail_urban rail rail_electric ship" speed="22.22" length="0.30" shape="523.28,1032.77 523.32,1033.07"/>
    </edge>
    <edge id=":2427087641_3" function="internal">
        <lane id=":2427087641_3_0" index="0" disallow="tram rail_urban rail rail_electric ship" speed="22.22" length="2.41" shape="523.28,1032.77 522.64,1034.12 521.89,1034.64"/>
    </edge>
    <edge id=":2427087641_5" function="internal">
        <lane id=":2427087641_5_0" index="0" speed="22.22" length="2.41" shape="521.89,1034.64 521.01,1034.35 520.02,1033.25"/>
    </edge>
    <edge id=":2427087673_0" function="internal">
        <lane id=":2427087673_0_0" index="0" disallow="tram rail_urban rail rail_electric ship" speed="22.22" length="0.10" shape="571.03,1098.88 571.03,1098.88"/>
    </edge>
    <edge id=":2427087673_1" function="internal">
        <lane id=":2427087673_1_0" index="0" disallow="tram rail_urban rail rail_electric ship" speed="22.22" length="2.41" shape="571.03,1098.88 570.43,1097.52 570.53,1096.60"/>
    </edge>
    <edge id=":2427087673_4" function="internal">
        <lane id=":2427087673_4_0" index="0" speed="22.22" length="2.41" shape="570.53,1096.60 571.32,1096.13 572.81,1096.10"/>
    </edge>
    <edge id=":2427087673_2" function="internal">
        <lane id=":2427087673_2_0" index="0" disallow="tram rail_urban rail rail_electric ship" speed="22.22" length="0.10" shape="572.81,1096.10 572.81,1096.10"/>
    </edge>
    <edge id=":2427087673_3" function="internal">
        <lane id=":2427087673_3_0" index="0" disallow="tram rail_urban rail rail_electric ship" speed="22.22" length="2.41" shape="572.81,1096.10 573.41,1097.46 573.31,1098.38"/>
    </edge>
    <edge id=":2427087673_5" function="internal">
        <lane id=":2427087673_5_0" index="0" speed="22.22" length="2.41" shape="573.31,1098.38 572.52,1098.85 571.03,1098.88"/>
    </edge>
    <edge id=":283379501_0" function="internal">
        <lane id=":283379501_0_0" index="0" disallow="tram rail_urban rail rail_electric ship" speed="13.89" length="7.89" shape="1013.86,1313.55 1014.94,1315.42 1015.16,1317.19 1014.53,1318.86 1013.04,1320.42"/>
    </edge>
    <edge id=":283379501_1" function="internal">
        <lane id=":283379501_1_0" index="0" disallow="tram rail_urban rail rail_electric ship" speed="22.22" length="4.82" shape="1013.86,1313.55 1013.97,1315.03 1013.58,1315.87 1012.68,1316.05 1011.26,1315.59"/>
    </edge>
    <edge id=":283379501_2" function="internal">
        <lane id=":283379501_2_0" index="0" disallow="tram rail_urban rail rail_electric ship" speed="13.89" length="2.57" shape="1010.99,1317.83 1011.48,1317.32 1011.69,1316.78 1011.62,1316.20 1011.26,1315.59"/>
    </edge>
    <edge id=":283379501_3" function="internal">
        <lane id=":283379501_3_0" index="0" disallow="tram rail_urban rail rail_electric ship" speed="5.56" length="4.82" shape="1010.99,1317.83 1012.48,1317.71 1013.31,1318.10 1013.50,1319.01 1013.04,1320.42"/>
    </edge>
    <edge id=":283379509_0" function="internal">
        <lane id=":283379509_0_0" index="0" disallow="tram rail_urban rail rail_electric ship" speed="15.27" length="4.97" shape="518.12,1011.54 517.84,1010.21 517.21,1009.28 516.21,1008.75 514.86,1008.61"/>
    </edge>
    <edge id=":283379509_1" function="internal">