<?xml version="1.0" encoding="UTF-8"?>

<!-- generated on 05/24/20 17:29:41 by Eclipse SUMO netedit Version 1.5.0
<configuration xmlns:xsi="http://www.w3.org/2001/XMLSchema-instance" xsi:noNamespaceSchemaLocation="http://sumo.dlr.de/xsd/netconvertConfiguration.xsd">

    <input>
        <sumo-net-file value="D:\ProjektSS2020\Fahrsimulator\osds3\Maps\AmpelDemo\AmpelDemo.net.xml"/>
    </input>

    <output>
        <output-file value="D:\ProjektSS2020\Fahrsimulator\osds3\Maps\AmpelDemo\AmpelDemo.net.xml"/>
    </output>

    <processing>
        <geometry.min-radius.fix.railways value="false"/>
        <geometry.max-grade.fix value="false"/>
        <offset.disable-normalization value="true"/>
        <lefthand value="false"/>
    </processing>

    <junctions>
        <no-turnarounds value="true"/>
        <junctions.corner-detail value="0"/>
        <junctions.limit-turn-speed value="-1"/>
        <rectangular-lane-cut value="false"/>
    </junctions>

    <pedestrian>
        <walkingareas value="false"/>
    </pedestrian>

    <report>
        <aggregate-warnings value="5"/>
    </report>

</configuration>
-->

<net version="1.3" xmlns:xsi="http://www.w3.org/2001/XMLSchema-instance" xsi:noNamespaceSchemaLocation="http://sumo.dlr.de/xsd/net_file.xsd">

    <location netOffset="0.00,0.00" convBoundary="-100.00,-100.00,100.00,100.00" origBoundary="-10000000000.00,-10000000000.00,10000000000.00,10000000000.00" projParameter="!"/>

    <edge id=":gneJ0_0" function="internal">
        <lane id=":gneJ0_0_0" index="0" speed="13.89" length="9.27" width="3.50" shape="-1.75,7.50 -2.11,4.98 -3.19,3.19 -4.98,2.11 -7.50,1.75"/>
    </edge>
    <edge id=":gneJ0_1" function="internal">
        <lane id=":gneJ0_1_0" index="0" speed="13.89" length="15.00" width="3.50" shape="-1.75,7.50 -1.75,-7.50"/>
    </edge>
    <edge id=":gneJ0_2" function="internal">
        <lane id=":gneJ0_2_0" index="0" speed="13.89" length="6.37" width="3.50" shape="-1.75,7.50 -0.92,4.22 0.83,1.81"/>
    </edge>
    <edge id=":gneJ0_12" function="internal">
        <lane id=":gneJ0_12_0" index="0" speed="13.89" length="7.76" width="3.50" shape="0.83,1.81 1.24,1.24 4.22,-0.92 7.50,-1.75"/>
    </edge>
    <edge id=":gneJ0_3" function="internal">
        <lane id=":gneJ0_3_0" index="0" speed="13.89" length="9.27" width="3.50" shape="7.50,1.75 4.98,2.11 3.19,3.19 2.11,4.98 1.75,7.50"/>
    </edge>
    <edge id=":gneJ0_4" function="internal">
        <lane id=":gneJ0_4_0" index="0" speed="13.89" length="15.00" width="3.50" shape="7.50,1.75 -7.50,1.75"/>
    </edge>
    <edge id=":gneJ0_5" function="internal">
        <lane id=":gneJ0_5_0" index="0" speed="13.89" length="6.37" width="3.50" shape="7.50,1.75 4.22,0.92 1.81,-0.83"/>
    </edge>
    <edge id=":gneJ0_13" function="internal">
        <lane id=":gneJ0_13_0" index="0" speed="13.89" length="7.76" width="3.50" shape="1.81,-0.83 1.24,-1.24 -0.92,-4.22 -1.75,-7.50"/>
    </edge>
    <edge id=":gneJ0_6" function="internal">
        <lane id=":gneJ0_6_0" index="0" speed="13.89" length="9.27" width="3.50" shape="1.75,-7.50 2.11,-4.98 3.19,-3.19 4.98,-2.11 7.50,-1.75"/>
    </edge>
    <edge id=":gneJ0_7" function="internal">
        <lane id=":gneJ0_7_0" index="0" speed="13.89" length="15.00" width="3.50" shape="1.75,-7.50 1.75,7.50"/>
    </edge>
    <edge id=":gneJ0_8" function="internal">
        <lane id=":gneJ0_8_0" index="0" speed="13.89" length="6.37" width="3.50" shape="1.75,-7.50 0.92,-4.22 -0.83,-1.81"/>
    </edge>
    <edge id=":gneJ0_14" function="internal">
        <lane id=":gneJ0_14_0" index="0" speed="13.89" length="7.76" width="3.50" shape="-0.83,-1.81 -1.24,-1.24 -4.22,0.92 -7.50,1.75"/>
    </edge>
    <edge id=":gneJ0_9" function="internal">
        <lane id=":gneJ0_9_0" index="0" speed="13.89" length="9.27" width="3.50" shape="-7.50,-1.75 -4.98,-2.11 -3.19,-3.19 -2.11,-4.98 -1.75,-7.50"/>
    </edge>
    <edge id=":gneJ0_10" function="internal">
        <lane id=":gneJ0_10_0" index="0" speed="13.89" length="15.00" width="3.50" shape="-7.50,-1.75 7.50,-1.75"/>
    </edge>
    <edge id=":gneJ0_11" function="internal">
        <lane id=":gneJ0_11_0" index="0" speed="13.89" length="6.37" width="3.50" shape="-7.50,-1.75 -4.22,-0.92 -1.81,0.83"/>
    </edge>
    <edge id=":gneJ0_15" function="internal">
        <lane id=":gneJ0_15_0" index="0" speed="13.89" length="7.76" width="3.50" shape="-1.81,0.83 -1.24,1.24 0.92,4.22 1.75,7.50"/>
    </edge>
    <edge id=":gneJ1_0" function="internal">
        <lane id=":gneJ1_0_0" index="0" speed="13.89" length="8.47" width="3.50" shape="101.75,-3.50 101.42,-1.20 100.44,0.44 98.80,1.42 96.50,1.75"/>
    </edge>
    <edge id=":gneJ1_1" function="internal">
        <lane id=":gneJ1_1_0" index="0" speed="13.89" length="2.82" width="3.50" shape="96.50,-1.75 97.27,-1.86 97.81,-2.19 98.14,-2.73 98.25,-3.50"/>
    </edge>
    <edge id=":gneJ2_0" function="internal">
        <lane id=":gneJ2_0_0" index="0" speed="13.89" length="2.82" width="3.50" shape="98.25,-96.50 98.14,-97.27 97.81,-97.81 97.27,-98.14 96.50,-98.25"/>
    </edge>
    <edge id=":gneJ2_1" function="internal">
        <lane id=":gneJ2_1_0" index="0" speed="13.89" length="8.47" width="3.50" shape="96.50,-101.75 98.80,-101.42 100.44,-100.44 101.42,-98.80 101.75,-96.50"/>
    </edge>
    <edge id=":gneJ4_0" function="internal">
        <lane id=":gneJ4_0_0" index="0" speed="13.89" length="8.47" width="3.50" shape="-1.75,-96.50 -1.42,-98.80 -0.44,-100.44 1.20,-101.42 3.50,-101.75"/>
    </edge>
    <edge id=":gneJ4_1" function="internal">
        <lane id=":gneJ4_1_0" index="0" speed="13.89" length="2.82" width="3.50" shape="3.50,-98.25 2.73,-98.14 2.19,-97.81 1.86,-97.27 1.75,-96.50"/>
    </edge>
    <edge id=":gneJ5_0" function="internal">
        <lane id=":gneJ5_0_0" index="0" speed="13.89" length="8.47" width="3.50" shape="-101.75,3.50 -101.42,1.20 -100.44,-0.44 -98.80,-1.42 -96.50,-1.75"/>
    </edge>
    <edge id=":gneJ5_1" function="internal">
        <lane id=":gneJ5_1_0" index="0" speed="13.89" length="2.82" width="3.50" shape="-96.50,1.75 -97.27,1.86 -97.81,2.19 -98.14,2.73 -98.25,3.50"/>
    </edge>
    <edge id=":gneJ6_0" function="internal">
        <lane id=":gneJ6_0_0" index="0" speed="13.89" length="8.47" width="3.50" shape="-96.50,101.75 -98.80,101.42 -100.44,100.44 -101.42,98.80 -101.75,96.50"/>
    </edge>
    <edge id=":gneJ6_1" function="internal">
        <lane id=":gneJ6_1_0" index="0" speed="13.89" length="2.82" width="3.50" shape="-98.25,96.50 -98.14,97.27 -97.81,97.81 -97.27,98.14 -96.50,98.25"/>
    </edge>
    <edge id=":gneJ7_0" function="internal">
        <lane id=":gneJ7_0_0" index="0" speed="13.89" length="8.47" width="3.50" shape="1.75,96.50 1.42,98.80 0.44,100.44 -1.20,101.42 -3.50,101.75"/>
    </edge>
    <edge id=":gneJ7_1" function="internal">
        <lane id=":gneJ7_1_0" index="0" speed="13.89" length="2.82" width="3.50" shape="-3.50,98.25 -2.73,98.14 -2.19,97.81 -1.86,97.27 -1.75,96.50"/>
    </edge>

    <edge id="-gneE0" from="gneJ1" to="gneJ0" priority="1">
        <lane id="-gneE0_0" index="0" speed="13.89" length="89.00" width="3.50" shape="96.50,1.75 7.50,1.75"/>
    </edge>
    <edge id="-gneE1" from="gneJ2" to="gneJ1" priority="1">
        <lane id="-gneE1_0" index="0" speed="13.89" length="93.00" width="3.50" shape="101.75,-96.50 101.75,-3.50"/>
    </edge>
    <edge id="-gneE2" from="gneJ4" to="gneJ2" priority="1">
        <lane id="-gneE2_0" index="0" speed="13.89" length="93.00" width="3.50" shape="3.50,-101.75 96.50,-101.75"/>
    </edge>
    <edge id="-gneE3" from="gneJ0" to="gneJ4" priority="1">
        <lane id="-gneE3_0" index="0" speed="13.89" length="89.00" width="3.50" shape="-1.75,-7.50 -1.75,-96.50"/>
    </edge>
    <edge id="-gneE4" from="gneJ5" to="gneJ0" priority="1">
        <lane id="-gneE4_0" index="0" speed="13.89" length="89.00" width="3.50" shape="-96.50,-1.75 -7.50,-1.75"/>
    </edge>
    <edge id="-gneE5" from="gneJ6" to="gneJ5" priority="1">
        <lane id="-gneE5_0" index="0" speed="13.89" length="93.00" width="3.50" shape="-101.75,96.50 -101.75,3.50"/>
    </edge>
    <edge id="-gneE6" from="gneJ7" to="gneJ6" priority="1">
        <lane id="-gneE6_0" index="0" speed="13.89" length="93.00" width="3.50" shape="-3.50,101.75 -96.50,101.75"/>
    </edge>
    <edge id="-gneE7" from="gneJ0" to="gneJ7" priority="1">
        <lane id="-gneE7_0" index="0" speed="13.89" length="89.00" width="3.50" shape="1.75,7.50 1.75,96.50"/>
    </edge>
    <edge id="gneE0" from="gneJ0" to="gneJ1" priority="1">
        <lane id="gneE0_0" index="0" speed="13.89" length="89.00" width="3.50" shape="7.50,-1.75 96.50,-1.75"/>
    </edge>
    <edge id="gneE1" from="gneJ1" to="gneJ2" priority="1">
        <lane id="gneE1_0" index="0" speed="13.89" length="93.00" width="3.50" shape="98.25,-3.50 98.25,-96.50"/>
    </edge>
    <edge id="gneE2" from="gneJ2" to="gneJ4" priority="1">
        <lane id="gneE2_0" index="0" speed="13.89" length="93.00" width="3.50" shape="96.50,-98.25 3.50,-98.25"/>
    </edge>
    <edge id="gneE3" from="gneJ4" to="gneJ0" priority="1">
        <lane id="gneE3_0" index="0" speed="13.89" length="89.00" width="3.50" shape="1.75,-96.50 1.75,-7.50"/>
    </edge>
    <edge id="gneE4" from="gneJ0" to="gneJ5" priority="1">
        <lane id="gneE4_0" index="0" speed="13.89" length="89.00" width="3.50" shape="-7.50,1.75 -96.50,1.75"/>
    </edge>
    <edge id="gneE5" from="gneJ5" to="gneJ6" priority="1">
        <lane id="gneE5_0" index="0" speed="13.89" length="93.00" width="3.50" shape="-98.25,3.50 -98.25,96.50"/>
    </edge>
    <edge id="gneE6" from="gneJ6" to="gneJ7" priority="1">
        <lane id="gneE6_0" index="0" speed="13.89" length="93.00" width="3.50" shape="-96.50,98.25 -3.50,98.25"/>
    </edge>
    <edge id="gneE7" from="gneJ7" to="gneJ0" priority="1">
        <lane id="gneE7_0" index="0" speed="13.89" length="89.00" width="3.50" shape="-1.75,96.50 -1.75,7.50"/>
    </edge>

    <tlLogic id="gneJ0" type="static" programID="0" offset="0">
        <phase duration="33" state="GGgrrrGGgrrr"/>
        <phase duration="3"  state="yygrrryygrrr"/>
        <phase duration="6"  state="rrGrrrrrGrrr"/>
        <phase duration="3"  state="rryrrrrryrrr"/>
        <phase duration="33" state="rrrGGgrrrGGg"/>
        <phase duration="3"  state="rrryygrrryyg"/>
        <phase duration="6"  state="rrrrrGrrrrrG"/>
        <phase duration="3"  state="rrrrryrrrrry"/>
    </tlLogic>

    <junction id="gneJ0" type="traffic_light" x="0.00" y="0.00" incLanes="gneE7_0 -gneE0_0 gneE3_0 -gneE4_0" intLanes=":gneJ0_0_0 :gneJ0_1_0 :gneJ0_12_0 :gneJ0_3_0 :gneJ0_4_0 :gneJ0_13_0 :gneJ0_6_0 :gneJ0_7_0 :gneJ0_14_0 :gneJ0_9_0 :gneJ0_10_0 :gneJ0_15_0" shape="-3.50,7.50 3.50,7.50 7.50,3.50 7.50,-3.50 3.50,-7.50 -3.50,-7.50 -7.50,-3.50 -7.50,3.50">
        <request index="0"  response="000000000000" foes="000100010000" cont="0"/>
        <request index="1"  response="100000100000" foes="111100110000" cont="0"/>
        <request index="2"  response="100011100000" foes="110011110000" cont="1"/>
        <request index="3"  response="000010000000" foes="100010000000" cont="0"/>
        <request index="4"  response="000110000111" foes="100110000111" cont="0"/>
        <request index="5"  response="011110000110" foes="011110000110" cont="1"/>
        <request index="6"  response="000000000000" foes="010000000100" cont="0"/>
        <request index="7"  response="100000100000" foes="110000111100" cont="0"/>
        <request index="8"  response="100000100011" foes="110000110011" cont="1"/>
        <request index="9"  response="000000000010" foes="000000100010" cont="0"/>
        <request index="10" response="000111000110" foes="000111100110" cont="0"/>
        <request index="11" response="000110011110" foes="000110011110" cont="1"/>
    </junction>
    <junction id="gneJ1" type="priority" x="100.00" y="0.00" incLanes="-gneE1_0 gneE0_0" intLanes=":gneJ1_0_0 :gneJ1_1_0" shape="103.50,-3.50 96.50,-3.50 96.50,3.50">
        <request index="0" response="00" foes="00" cont="0"/>
        <request index="1" response="00" foes="00" cont="0"/>
    </junction>
    <junction id="gneJ2" type="priority" x="100.00" y="-100.00" incLanes="gneE1_0 -gneE2_0" intLanes=":gneJ2_0_0 :gneJ2_1_0" shape="96.50,-96.50 103.50,-96.50 96.50,-103.50">
        <request index="0" response="00" foes="00" cont="0"/>
        <request index="1" response="00" foes="00" cont="0"/>
    </junction>
    <junction id="gneJ4" type="priority" x="0.00" y="-100.00" incLanes="-gneE3_0 gneE2_0" intLanes=":gneJ4_0_0 :gneJ4_1_0" shape="-3.50,-96.50 3.50,-96.50 3.50,-103.50">
        <request index="0" response="00" foes="00" cont="0"/>
        <request index="1" response="00" foes="00" cont="0"/>
    </junction>
    <junction id="gneJ5" type="priority" x="-100.00" y="0.00" incLanes="-gneE5_0 gneE4_0" intLanes=":gneJ5_0_0 :gneJ5_1_0" shape="-103.50,3.50 -96.50,3.50 -96.50,-3.50">
        <request index="0" response="00" foes="00" cont="0"/>
        <request index="1" response="00" foes="00" cont="0"/>
    </junction>
    <junction id="gneJ6" type="priority" x="-100.00" y="100.00" incLanes="-gneE6_0 gneE5_0" intLanes=":gneJ6_0_0 :gneJ6_1_0" shape="-96.50,103.50 -96.50,96.50 -103.50,96.50">
        <request index="0" response="00" foes="00" cont="0"/>
        <request index="1" response="00" foes="00" cont="0"/>
    </junction>
    <junction id="gneJ7" type="priority" x="0.00" y="100.00" incLanes="-gneE7_0 gneE6_0" intLanes=":gneJ7_0_0 :gneJ7_1_0" shape="3.50,96.50 -3.50,96.50 -3.50,103.50">
        <request index="0" response="00" foes="00" cont="0"/>
        <request index="1" response="00" foes="00" cont="0"/>
    </junction>

    <junction id=":gneJ0_12_0" type="internal" x="0.83" y="1.81" incLanes=":gneJ0_2_0 gneE3_0" intLanes=":gneJ0_4_0 :gneJ0_5_0 :gneJ0_6_0 :gneJ0_7_0 :gneJ0_10_0 :gneJ0_11_0"/>
    <junction id=":gneJ0_13_0" type="internal" x="1.81" y="-0.83" incLanes=":gneJ0_5_0 -gneE4_0" intLanes=":gneJ0_1_0 :gneJ0_2_0 :gneJ0_7_0 :gneJ0_8_0 :gneJ0_9_0 :gneJ0_10_0"/>
    <junction id=":gneJ0_14_0" type="internal" x="-0.83" y="-1.81" incLanes=":gneJ0_8_0 gneE7_0" intLanes=":gneJ0_0_0 :gneJ0_1_0 :gneJ0_4_0 :gneJ0_5_0 :gneJ0_10_0 :gneJ0_11_0"/>
    <junction id=":gneJ0_15_0" type="internal" x="-1.81" y="0.83" incLanes=":gneJ0_11_0 -gneE0_0" intLanes=":gneJ0_1_0 :gneJ0_2_0 :gneJ0_3_0 :gneJ0_4_0 :gneJ0_7_0 :gneJ0_8_0"/>

    <connection from="-gneE0" to="-gneE7" fromLane="0" toLane="0" via=":gneJ0_3_0" tl="gneJ0" linkIndex="3" dir="r" state="o"/>
    <connection from="-gneE0" to="gneE4" fromLane="0" toLane="0" via=":gneJ0_4_0" tl="gneJ0" linkIndex="4" dir="s" state="o"/>
    <connection from="-gneE0" to="-gneE3" fromLane="0" toLane="0" via=":gneJ0_5_0" tl="gneJ0" linkIndex="5" dir="l" state="o"/>
    <connection from="-gneE1" to="-gneE0" fromLane="0" toLane="0" via=":gneJ1_0_0" dir="l" state="M"/>
    <connection from="-gneE2" to="-gneE1" fromLane="0" toLane="0" via=":gneJ2_1_0" dir="l" state="M"/>
    <connection from="-gneE3" to="-gneE2" fromLane="0" toLane="0" via=":gneJ4_0_0" dir="l" state="M"/>
    <connection from="-gneE4" to="-gneE3" fromLane="0" toLane="0" via=":gneJ0_9_0" tl="gneJ0" linkIndex="9" dir="r" state="o"/>
    <connection from="-gneE4" to="gneE0" fromLane="0" toLane="0" via=":gneJ0_10_0" tl="gneJ0" linkIndex="10" dir="s" state="o"/>
    <connection from="-gneE4" to="-gneE7" fromLane="0" toLane="0" via=":gneJ0_11_0" tl="gneJ0" linkIndex="11" dir="l" state="o"/>
    <connection from="-gneE5" to="-gneE4" fromLane="0" toLane="0" via=":gneJ5_0_0" dir="l" state="M"/>
    <connection from="-gneE6" to="-gneE5" fromLane="0" toLane="0" via=":gneJ6_0_0" dir="l" state="M"/>
    <connection from="-gneE7" to="-gneE6" fromLane="0" toLane="0" via=":gneJ7_0_0" dir="l" state="M"/>
    <connection from="gneE0" to="gneE1" fromLane="0" toLane="0" via=":gneJ1_1_0" dir="r" state="M"/>
    <connection from="gneE1" to="gneE2" fromLane="0" toLane="0" via=":gneJ2_0_0" dir="r" state="M"/>
    <connection from="gneE2" to="gneE3" fromLane="0" toLane="0" via=":gneJ4_1_0" dir="r" state="M"/>
    <connection from="gneE3" to="gneE0" fromLane="0" toLane="0" via=":gneJ0_6_0" tl="gneJ0" linkIndex="6" dir="r" state="O"/>
    <connection from="gneE3" to="-gneE7" fromLane="0" toLane="0" via=":gneJ0_7_0" tl="gneJ0" linkIndex="7" dir="s" state="O"/>
    <connection from="gneE3" to="gneE4" fromLane="0" toLane="0" via=":gneJ0_8_0" tl="gneJ0" linkIndex="8" dir="l" state="o"/>
    <connection from="gneE4" to="gneE5" fromLane="0" toLane="0" via=":gneJ5_1_0" dir="r" state="M"/>
    <connection from="gneE5" to="gneE6" fromLane="0" toLane="0" via=":gneJ6_1_0" dir="r" state="M"/>
    <connection from="gneE6" to="gneE7" fromLane="0" toLane="0" via=":gneJ7_1_0" dir="r" state="M"/>
    <connection from="gneE7" to="gneE4" fromLane="0" toLane="0" via=":gneJ0_0_0" tl="gneJ0" linkIndex="0" dir="r" state="O"/>
    <connection from="gneE7" to="-gneE3" fromLane="0" toLane="0" via=":gneJ0_1_0" tl="gneJ0" linkIndex="1" dir="s" state="O"/>
    <connection from="gneE7" to="gneE0" fromLane="0" toLane="0" via=":gneJ0_2_0" tl="gneJ0" linkIndex="2" dir="l" state="o"/>

    <connection from=":gneJ0_0" to="gneE4" fromLane="0" toLane="0" dir="r" state="M"/>
    <connection from=":gneJ0_1" to="-gneE3" fromLane="0" toLane="0" dir="s" state="M"/>
    <connection from=":gneJ0_2" to="gneE0" fromLane="0" toLane="0" via=":gneJ0_12_0" dir="l" state="m"/>
    <connection from=":gneJ0_12" to="gneE0" fromLane="0" toLane="0" dir="l" state="M"/>
    <connection from=":gneJ0_3" to="-gneE7" fromLane="0" toLane="0" dir="r" state="M"/>
    <connection from=":gneJ0_4" to="gneE4" fromLane="0" toLane="0" dir="s" state="M"/>
    <connection from=":gneJ0_5" to="-gneE3" fromLane="0" toLane="0" via=":gneJ0_13_0" dir="l" state="m"/>
    <connection from=":gneJ0_13" to="-gneE3" fromLane="0" toLane="0" dir="l" state="M"/>
    <connection from=":gneJ0_6" to="gneE0" fromLane="0" toLane="0" dir="r" state="M"/>
    <connection from=":gneJ0_7" to="-gneE7" fromLane="0" toLane="0" dir="s" state="M"/>
    <connection from=":gneJ0_8" to="gneE4" fromLane="0" toLane="0" via=":gneJ0_14_0" dir="l" state="m"/>
    <connection from=":gneJ0_14" to="gneE4" fromLane="0" toLane="0" dir="l" state="M"/>
    <connection from=":gneJ0_9" to="-gneE3" fromLane="0" toLane="0" dir="r" state="M"/>
    <connection from=":gneJ0_10" to="gneE0" fromLane="0" toLane="0" dir="s" state="M"/>
    <connection from=":gneJ0_11" to="-gneE7" fromLane="0" toLane="0" via=":gneJ0_15_0" dir="l" state="m"/>
    <connection from=":gneJ0_15" to="-gneE7" fromLane="0" toLane="0" dir="l" state="M"/>
    <connection from=":gneJ1_0" to="-gneE0" fromLane="0" toLane="0" dir="l" state="M"/>
    <connection from=":gneJ1_1" to="gneE1" fromLane="0" toLane="0" dir="r" state="M"/>
    <connection from=":gneJ2_0" to="gneE2" fromLane="0" toLane="0" dir="r" state="M"/>
    <connection from=":gneJ2_1" to="-gneE1" fromLane="0" toLane="0" dir="l" state="M"/>
    <connection from=":gneJ4_0" to="-gneE2" fromLane="0" toLane="0" dir="l" state="M"/>
    <connection from=":gneJ4_1" to="gneE3" fromLane="0" toLane="0" dir="r" state="M"/>
    <connection from=":gneJ5_0" to="-gneE4" fromLane="0" toLane="0" dir="l" state="M"/>
    <connection from=":gneJ5_1" to="gneE5" fromLane="0" toLane="0" dir="r" state="M"/>
    <connection from=":gneJ6_0" to="-gneE5" fromLane="0" toLane="0" dir="l" state="M"/>
    <connection from=":gneJ6_1" to="gneE6" fromLane="0" toLane="0" dir="r" state="M"/>
    <connection from=":gneJ7_0" to="-gneE6" fromLane="0" toLane="0" dir="l" state="M"/>
    <connection from=":gneJ7_1" to="gneE7" fromLane="0" toLane="0" dir="r" state="M"/>

</net>
