<?xml version="1.0" encoding="UTF-8"?>

<!-- generated on 10/30/17 20:40:23 by SUMO duarouter Version 0.31.0
<?xml version="1.0" encoding="UTF-8"?>

<configuration xmlns:xsi="http://www.w3.org/2001/XMLSchema-instance" xsi:noNamespaceSchemaLocation="http://sumo.dlr.de/xsd/duarouterConfiguration.xsd">

    <input>
        <net-file value="AmpelDemo.net.xml"/>
        <route-files value="AmpelDemo.trips.xml"/>
    </input>

    <output>
        <output-file value="AmpelDemo.rou.xml"/>
    </output>

    <processing>
        <ignore-errors value="true"/>
    </processing>

    <time>
        <begin value="0"/>
        <end value="4.0"/>
    </time>

    <report>
        <no-warnings value="true"/>
        <no-step-log value="true"/>
    </report>

</configuration>
-->

<routes xmlns:xsi="http://www.w3.org/2001/XMLSchema-instance" xsi:noNamespaceSchemaLocation="http://sumo.dlr.de/xsd/routes_file.xsd">
    <vType id="passenger" vClass="passenger"/>
    <vehicle id="0" type="passenger" depart="0.00">
        <route edges="-gneE3 -gneE2 -gneE1"/>
    </vehicle>
    <vehicle id="1" type="passenger" depart="1.00">
        <route edges="-gneE6 -gneE5 -gneE4 -gneE3 -gneE2"/>
    </vehicle>
    <vehicle id="2" type="passenger" depart="2.00">
        <route edges="-gneE1 -gneE0 -gneE7 -gneE6"/>
    </vehicle>
    <vehicle id="3" type="passenger" depart="3.00">
        <route edges="gneE6 gneE7 gneE4"/>
    </vehicle>
</routes>
